MODEL 1
REMARK VINA RESULT:      -8.1      0.000      0.000
REMARK  6 active torsions:
REMARK  status: ('A' for Active; 'I' for Inactive)
REMARK    1  A    between atoms: C_8  and  S_23 
REMARK    2  A    between atoms: C_9  and  C_11 
REMARK    3  A    between atoms: C_11  and  N_12 
REMARK    4  A    between atoms: N_12  and  C_13 
REMARK    5  A    between atoms: C_13  and  C_14 
REMARK    6  A    between atoms: C_17  and  N_20 
ROOT
HETATM    1  C           1     174.698 185.609 287.681  0.00  0.00     0.311 C 
ENDROOT
BRANCH   1   2
HETATM    2  C           1     173.767 186.174 288.708  0.00  0.00     0.006 A 
HETATM    3  C           1     172.934 187.236 288.406  0.00  0.00     0.101 A 
HETATM    4  N           1     172.071 187.791 289.286  0.00  0.00    -0.241 NA
HETATM    5  C           1     172.022 187.281 290.529  0.00  0.00     0.068 A 
HETATM    6  C           1     171.147 187.827 291.458  0.00  0.00     0.032 A 
HETATM    7  C           1     172.832 186.198 290.934  0.00  0.00    -0.007 A 
HETATM    8  C           1     171.056 187.333 292.764  0.00  0.00     0.002 A 
HETATM    9  C           1     171.857 186.266 293.157  0.00  0.00     0.001 A 
HETATM   10  C           1     172.744 185.698 292.245  0.00  0.00     0.014 A 
HETATM   11  C           1     173.713 185.649 289.993  0.00  0.00     0.025 A 
BRANCH   3  12
HETATM   12  S           1     173.003 187.923 286.728  0.00  0.00    -0.114 SA
HETATM   13  C           1     171.248 187.608 286.390  0.00  0.00     0.097 C 
ENDBRANCH   3  12
ENDBRANCH   1   2
BRANCH   1  14
HETATM   14  N           1     173.984 184.684 286.843  0.00  0.00     0.091 N 
HETATM   15  H           1     173.672 183.890 287.402  0.00  0.00     0.316 HD
BRANCH  14  16
HETATM   16  C           1     174.892 184.226 285.826  0.00  0.00     0.308 C 
BRANCH  16  17
HETATM   17  C           1     174.558 184.886 284.524  0.00  0.00    -0.030 A 
HETATM   18  C           1     175.579 185.276 283.657  0.00  0.00     0.011 A 
HETATM   19  C           1     175.267 185.892 282.445  0.00  0.00     0.030 A 
HETATM   20  C           1     173.936 186.118 282.100  0.00  0.00     0.029 A 
HETATM   21  C           1     172.914 185.728 282.966  0.00  0.00     0.030 A 
HETATM   22  C           1     173.225 185.112 284.179  0.00  0.00     0.011 A 
BRANCH  20  23
HETATM   23  N           1     173.652 186.676 281.000  0.00  0.00    -0.390 N 
HETATM   24  C           1     172.300 186.548 280.436  0.00  0.00     0.149 C 
HETATM   25  C           1     174.675 187.453 280.286  0.00  0.00     0.149 C 
ENDBRANCH  20  23
ENDBRANCH  16  17
ENDBRANCH  14  16
ENDBRANCH   1  14
TORSDOF 6
ENDMDL
MODEL 2
REMARK VINA RESULT:      -7.7      1.899      3.103
REMARK  6 active torsions:
REMARK  status: ('A' for Active; 'I' for Inactive)
REMARK    1  A    between atoms: C_8  and  S_23 
REMARK    2  A    between atoms: C_9  and  C_11 
REMARK    3  A    between atoms: C_11  and  N_12 
REMARK    4  A    between atoms: N_12  and  C_13 
REMARK    5  A    between atoms: C_13  and  C_14 
REMARK    6  A    between atoms: C_17  and  N_20 
ROOT
HETATM    1  C           1     173.011 187.673 289.122  0.00  0.00     0.311 C 
ENDROOT
BRANCH   1   2
HETATM    2  C           1     171.793 187.604 289.990  0.00  0.00     0.006 A 
HETATM    3  C           1     170.529 187.775 289.457  0.00  0.00     0.101 A 
HETATM    4  N           1     169.391 187.724 290.184  0.00  0.00    -0.241 NA
HETATM    5  C           1     169.496 187.494 291.505  0.00  0.00     0.068 A 
HETATM    6  C           1     168.347 187.436 292.283  0.00  0.00     0.032 A 
HETATM    7  C           1     170.741 187.307 292.142  0.00  0.00    -0.007 A 
HETATM    8  C           1     168.401 187.199 293.660  0.00  0.00     0.002 A 
HETATM    9  C           1     169.631 187.015 294.283  0.00  0.00     0.001 A 
HETATM   10  C           1     170.800 187.069 293.527  0.00  0.00     0.014 A 
HETATM   11  C           1     171.899 187.367 291.354  0.00  0.00     0.025 A 
BRANCH   3  12
HETATM   12  S           1     170.390 188.086 287.675  0.00  0.00    -0.114 SA
HETATM   13  C           1     168.953 189.181 287.848  0.00  0.00     0.097 C 
ENDBRANCH   3  12
ENDBRANCH   1   2
BRANCH   1  14
HETATM   14  N           1     173.800 186.485 289.305  0.00  0.00     0.091 N 
HETATM   15  H           1     174.728 186.629 288.907  0.00  0.00     0.316 HD
BRANCH  14  16
HETATM   16  C           1     173.141 185.412 288.611  0.00  0.00     0.308 C 
BRANCH  16  17
HETATM   17  C           1     173.606 185.377 287.189  0.00  0.00    -0.030 A 
HETATM   18  C           1     172.676 185.305 286.152  0.00  0.00     0.011 A 
HETATM   19  C           1     173.110 185.272 284.827  0.00  0.00     0.030 A 
HETATM   20  C           1     174.473 185.312 284.538  0.00  0.00     0.029 A 
HETATM   21  C           1     175.404 185.384 285.574  0.00  0.00     0.030 A 
HETATM   22  C           1     174.971 185.416 286.900  0.00  0.00     0.011 A 
BRANCH  20  23
HETATM   23  N           1     174.867 185.282 283.335  0.00  0.00    -0.390 N 
HETATM   24  C           1     176.016 186.099 282.916  0.00  0.00     0.149 C 
HETATM   25  C           1     174.176 184.429 282.357  0.00  0.00     0.149 C 
ENDBRANCH  20  23
ENDBRANCH  16  17
ENDBRANCH  14  16
ENDBRANCH   1  14
TORSDOF 6
ENDMDL
MODEL 3
REMARK VINA RESULT:      -7.7      1.649      8.142
REMARK  6 active torsions:
REMARK  status: ('A' for Active; 'I' for Inactive)
REMARK    1  A    between atoms: C_8  and  S_23 
REMARK    2  A    between atoms: C_9  and  C_11 
REMARK    3  A    between atoms: C_11  and  N_12 
REMARK    4  A    between atoms: N_12  and  C_13 
REMARK    5  A    between atoms: C_13  and  C_14 
REMARK    6  A    between atoms: C_17  and  N_20 
ROOT
HETATM    1  C           1     174.458 184.936 287.511  0.00  0.00     0.311 C 
ENDROOT
BRANCH   1   2
HETATM    2  C           1     174.088 185.272 286.099  0.00  0.00     0.006 A 
HETATM    3  C           1     172.764 185.352 285.711  0.00  0.00     0.101 A 
HETATM    4  N           1     172.363 185.650 284.455  0.00  0.00    -0.241 NA
HETATM    5  C           1     173.310 185.882 283.529  0.00  0.00     0.068 A 
HETATM    6  C           1     172.934 186.192 282.229  0.00  0.00     0.032 A 
HETATM    7  C           1     174.689 185.825 283.828  0.00  0.00    -0.007 A 
HETATM    8  C           1     173.879 186.443 281.229  0.00  0.00     0.002 A 
HETATM    9  C           1     175.236 186.384 281.528  0.00  0.00     0.001 A 
HETATM   10  C           1     175.642 186.076 282.825  0.00  0.00     0.014 A 
HETATM   11  C           1     175.064 185.513 285.141  0.00  0.00     0.025 A 
BRANCH   3  12
HETATM   12  S           1     171.488 185.038 286.962  0.00  0.00    -0.114 SA
HETATM   13  C           1     171.028 186.786 287.117  0.00  0.00     0.097 C 
ENDBRANCH   3  12
ENDBRANCH   1   2
BRANCH   1  14
HETATM   14  N           1     174.599 186.148 288.272  0.00  0.00     0.091 N 
HETATM   15  H           1     175.439 186.642 287.971  0.00  0.00     0.316 HD
BRANCH  14  16
HETATM   16  C           1     174.728 185.782 289.657  0.00  0.00     0.308 C 
BRANCH  16  17
HETATM   17  C           1     173.466 186.129 290.384  0.00  0.00    -0.030 A 
HETATM   18  C           1     172.792 187.313 290.087  0.00  0.00     0.011 A 
HETATM   19  C           1     171.617 187.636 290.765  0.00  0.00     0.030 A 
HETATM   20  C           1     171.116 186.775 291.741  0.00  0.00     0.029 A 
HETATM   21  C           1     171.790 185.591 292.038  0.00  0.00     0.030 A 
HETATM   22  C           1     172.965 185.267 291.361  0.00  0.00     0.011 A 
BRANCH  20  23
HETATM   23  N           1     170.050 187.067 292.357  0.00  0.00    -0.390 N 
HETATM   24  C           1     170.010 187.018 293.826  0.00  0.00     0.149 C 
HETATM   25  C           1     168.850 187.457 291.603  0.00  0.00     0.149 C 
ENDBRANCH  20  23
ENDBRANCH  16  17
ENDBRANCH  14  16
ENDBRANCH   1  14
TORSDOF 6
ENDMDL
MODEL 4
REMARK VINA RESULT:      -7.6      3.765     10.796
REMARK  6 active torsions:
REMARK  status: ('A' for Active; 'I' for Inactive)
REMARK    1  A    between atoms: C_8  and  S_23 
REMARK    2  A    between atoms: C_9  and  C_11 
REMARK    3  A    between atoms: C_11  and  N_12 
REMARK    4  A    between atoms: N_12  and  C_13 
REMARK    5  A    between atoms: C_13  and  C_14 
REMARK    6  A    between atoms: C_17  and  N_20 
ROOT
HETATM    1  C           1     173.374 186.924 279.669  0.00  0.00     0.311 C 
ENDROOT
BRANCH   1   2
HETATM    2  C           1     173.949 186.526 278.345  0.00  0.00     0.006 A 
HETATM    3  C           1     173.217 185.767 277.451  0.00  0.00     0.101 A 
HETATM    4  N           1     173.676 185.375 276.242  0.00  0.00    -0.241 NA
HETATM    5  C           1     174.920 185.746 275.889  0.00  0.00     0.068 A 
HETATM    6  C           1     175.424 185.361 274.654  0.00  0.00     0.032 A 
HETATM    7  C           1     175.745 186.521 276.732  0.00  0.00    -0.007 A 
HETATM    8  C           1     176.710 185.720 274.239  0.00  0.00     0.002 A 
HETATM    9  C           1     177.519 186.484 275.074  0.00  0.00     0.001 A 
HETATM   10  C           1     177.039 186.884 276.319  0.00  0.00     0.014 A 
HETATM   11  C           1     175.233 186.908 277.978  0.00  0.00     0.025 A 
BRANCH   3  12
HETATM   12  S           1     171.539 185.268 277.929  0.00  0.00    -0.114 SA
HETATM   13  C           1     170.736 186.564 276.946  0.00  0.00     0.097 C 
ENDBRANCH   3  12
ENDBRANCH   1   2
BRANCH   1  14
HETATM   14  N           1     174.277 186.540 280.721  0.00  0.00     0.091 N 
HETATM   15  H           1     175.170 186.258 280.315  0.00  0.00     0.316 HD
BRANCH  14  16
HETATM   16  C           1     173.691 185.424 281.413  0.00  0.00     0.308 C 
BRANCH  16  17
HETATM   17  C           1     173.654 185.711 282.881  0.00  0.00    -0.030 A 
HETATM   18  C           1     174.639 185.189 283.720  0.00  0.00     0.011 A 
HETATM   19  C           1     174.603 185.457 285.088  0.00  0.00     0.030 A 
HETATM   20  C           1     173.584 186.245 285.619  0.00  0.00     0.029 A 
HETATM   21  C           1     172.598 186.767 284.780  0.00  0.00     0.030 A 
HETATM   22  C           1     172.633 186.500 283.412  0.00  0.00     0.011 A 
BRANCH  20  23
HETATM   23  N           1     173.551 186.488 286.860  0.00  0.00    -0.390 N 
HETATM   24  C           1     174.342 185.672 287.792  0.00  0.00     0.149 C 
HETATM   25  C           1     172.720 187.588 287.370  0.00  0.00     0.149 C 
ENDBRANCH  20  23
ENDBRANCH  16  17
ENDBRANCH  14  16
ENDBRANCH   1  14
TORSDOF 6
ENDMDL
MODEL 5
REMARK VINA RESULT:      -7.5      1.657      3.251
REMARK  6 active torsions:
REMARK  status: ('A' for Active; 'I' for Inactive)
REMARK    1  A    between atoms: C_8  and  S_23 
REMARK    2  A    between atoms: C_9  and  C_11 
REMARK    3  A    between atoms: C_11  and  N_12 
REMARK    4  A    between atoms: N_12  and  C_13 
REMARK    5  A    between atoms: C_13  and  C_14 
REMARK    6  A    between atoms: C_17  and  N_20 
ROOT
HETATM    1  C           1     173.903 185.162 287.720  0.00  0.00     0.311 C 
ENDROOT
BRANCH   1   2
HETATM    2  C           1     172.832 186.131 288.118  0.00  0.00     0.006 A 
HETATM    3  C           1     172.576 186.401 289.449  0.00  0.00     0.101 A 
HETATM    4  N           1     171.626 187.263 289.874  0.00  0.00    -0.241 NA
HETATM    5  C           1     170.886 187.895 288.946  0.00  0.00     0.068 A 
HETATM    6  C           1     169.901 188.787 289.347  0.00  0.00     0.032 A 
HETATM    7  C           1     171.071 187.686 287.562  0.00  0.00    -0.007 A 
HETATM    8  C           1     169.104 189.470 288.422  0.00  0.00     0.002 A 
HETATM    9  C           1     169.291 189.260 287.060  0.00  0.00     0.001 A 
HETATM   10  C           1     170.272 188.370 286.629  0.00  0.00     0.014 A 
HETATM   11  C           1     172.066 186.784 287.161  0.00  0.00     0.025 A 
BRANCH   3  12
HETATM   12  S           1     173.575 185.548 290.700  0.00  0.00    -0.114 SA
HETATM   13  C           1     172.174 185.282 291.823  0.00  0.00     0.097 C 
ENDBRANCH   3  12
ENDBRANCH   1   2
BRANCH   1  14
HETATM   14  N           1     174.610 185.671 286.576  0.00  0.00     0.091 N 
HETATM   15  H           1     174.082 186.440 286.165  0.00  0.00     0.316 HD
BRANCH  14  16
HETATM   16  C           1     174.721 184.601 285.621  0.00  0.00     0.308 C 
BRANCH  16  17
HETATM   17  C           1     174.403 185.119 284.253  0.00  0.00    -0.030 A 
HETATM   18  C           1     173.075 185.309 283.869  0.00  0.00     0.011 A 
HETATM   19  C           1     172.780 185.790 282.595  0.00  0.00     0.030 A 
HETATM   20  C           1     173.810 186.082 281.703  0.00  0.00     0.029 A 
HETATM   21  C           1     175.138 185.892 282.085  0.00  0.00     0.030 A 
HETATM   22  C           1     175.435 185.410 283.360  0.00  0.00     0.011 A 
BRANCH  20  23
HETATM   23  N           1     173.543 186.519 280.545  0.00  0.00    -0.390 N 
HETATM   24  C           1     172.170 186.438 280.026  0.00  0.00     0.149 C 
HETATM   25  C           1     174.607 187.108 279.720  0.00  0.00     0.149 C 
ENDBRANCH  20  23
ENDBRANCH  16  17
ENDBRANCH  14  16
ENDBRANCH   1  14
TORSDOF 6
ENDMDL
MODEL 6
REMARK VINA RESULT:      -7.3      2.085      8.220
REMARK  6 active torsions:
REMARK  status: ('A' for Active; 'I' for Inactive)
REMARK    1  A    between atoms: C_8  and  S_23 
REMARK    2  A    between atoms: C_9  and  C_11 
REMARK    3  A    between atoms: C_11  and  N_12 
REMARK    4  A    between atoms: N_12  and  C_13 
REMARK    5  A    between atoms: C_13  and  C_14 
REMARK    6  A    between atoms: C_17  and  N_20 
ROOT
HETATM    1  C           1     173.100 187.270 289.412  0.00  0.00     0.311 C 
ENDROOT
BRANCH   1   2
HETATM    2  C           1     173.013 186.882 287.968  0.00  0.00     0.006 A 
HETATM    3  C           1     171.919 187.235 287.201  0.00  0.00     0.101 A 
HETATM    4  N           1     171.779 186.917 285.895  0.00  0.00    -0.241 NA
HETATM    5  C           1     172.764 186.214 285.308  0.00  0.00     0.068 A 
HETATM    6  C           1     172.653 185.870 283.968  0.00  0.00     0.032 A 
HETATM    7  C           1     173.921 185.807 286.007  0.00  0.00    -0.007 A 
HETATM    8  C           1     173.649 185.140 283.310  0.00  0.00     0.002 A 
HETATM    9  C           1     174.787 184.741 284.003  0.00  0.00     0.001 A 
HETATM   10  C           1     174.924 185.073 285.349  0.00  0.00     0.014 A 
HETATM   11  C           1     174.029 186.156 287.360  0.00  0.00     0.025 A 
BRANCH   3  12
HETATM   12  S           1     170.591 188.183 287.995  0.00  0.00    -0.114 SA
HETATM   13  C           1     169.406 186.810 287.944  0.00  0.00     0.097 C 
ENDBRANCH   3  12
ENDBRANCH   1   2
BRANCH   1  14
HETATM   14  N           1     174.063 186.435 290.077  0.00  0.00     0.091 N 
HETATM   15  H           1     174.726 186.070 289.394  0.00  0.00     0.316 HD
BRANCH  14  16
HETATM   16  C           1     173.350 185.343 290.683  0.00  0.00     0.308 C 
BRANCH  16  17
HETATM   17  C           1     172.178 185.875 291.447  0.00  0.00    -0.030 A 
HETATM   18  C           1     170.880 185.575 291.033  0.00  0.00     0.011 A 
HETATM   19  C           1     169.789 186.071 291.745  0.00  0.00     0.030 A 
HETATM   20  C           1     169.994 186.867 292.871  0.00  0.00     0.029 A 
HETATM   21  C           1     171.291 187.167 293.286  0.00  0.00     0.030 A 
HETATM   22  C           1     172.384 186.671 292.574  0.00  0.00     0.011 A 
BRANCH  20  23
HETATM   23  N           1     169.003 187.318 293.518  0.00  0.00    -0.390 N 
HETATM   24  C           1     169.002 187.274 294.987  0.00  0.00     0.149 C 
HETATM   25  C           1     167.854 187.885 292.799  0.00  0.00     0.149 C 
ENDBRANCH  20  23
ENDBRANCH  16  17
ENDBRANCH  14  16
ENDBRANCH   1  14
TORSDOF 6
ENDMDL
MODEL 7
REMARK VINA RESULT:      -7.3      4.266     11.222
REMARK  6 active torsions:
REMARK  status: ('A' for Active; 'I' for Inactive)
REMARK    1  A    between atoms: C_8  and  S_23 
REMARK    2  A    between atoms: C_9  and  C_11 
REMARK    3  A    between atoms: C_11  and  N_12 
REMARK    4  A    between atoms: N_12  and  C_13 
REMARK    5  A    between atoms: C_13  and  C_14 
REMARK    6  A    between atoms: C_17  and  N_20 
ROOT
HETATM    1  C           1     172.080 185.620 278.336  0.00  0.00     0.311 C 
ENDROOT
BRANCH   1   2
HETATM    2  C           1     173.020 185.933 277.213  0.00  0.00     0.006 A 
HETATM    3  C           1     172.579 186.582 276.076  0.00  0.00     0.101 A 
HETATM    4  N           1     173.374 186.895 275.029  0.00  0.00    -0.241 NA
HETATM    5  C           1     174.673 186.553 275.099  0.00  0.00     0.068 A 
HETATM    6  C           1     175.519 186.859 274.042  0.00  0.00     0.032 A 
HETATM    7  C           1     175.219 185.889 276.218  0.00  0.00    -0.007 A 
HETATM    8  C           1     176.877 186.526 274.065  0.00  0.00     0.002 A 
HETATM    9  C           1     177.410 185.871 275.170  0.00  0.00     0.001 A 
HETATM   10  C           1     176.584 185.552 276.246  0.00  0.00     0.014 A 
HETATM   11  C           1     174.362 185.582 277.284  0.00  0.00     0.025 A 
BRANCH   3  12
HETATM   12  S           1     170.826 187.042 275.983  0.00  0.00    -0.114 SA
HETATM   13  C           1     171.144 188.810 276.245  0.00  0.00     0.097 C 
ENDBRANCH   3  12
ENDBRANCH   1   2
BRANCH   1  14
HETATM   14  N           1     172.828 185.425 279.549  0.00  0.00     0.091 N 
HETATM   15  H           1     172.522 184.564 280.002  0.00  0.00     0.316 HD
BRANCH  14  16
HETATM   16  C           1     172.558 186.543 280.412  0.00  0.00     0.308 C 
BRANCH  16  17
HETATM   17  C           1     172.993 186.214 281.806  0.00  0.00    -0.030 A 
HETATM   18  C           1     172.425 186.884 282.891  0.00  0.00     0.011 A 
HETATM   19  C           1     172.831 186.577 284.189  0.00  0.00     0.030 A 
HETATM   20  C           1     173.803 185.602 284.404  0.00  0.00     0.029 A 
HETATM   21  C           1     174.371 184.932 283.320  0.00  0.00     0.030 A 
HETATM   22  C           1     173.966 185.238 282.021  0.00  0.00     0.011 A 
BRANCH  20  23
HETATM   23  N           1     174.171 185.323 285.583  0.00  0.00    -0.390 N 
HETATM   24  C           1     173.662 186.104 286.719  0.00  0.00     0.149 C 
HETATM   25  C           1     175.110 184.216 285.815  0.00  0.00     0.149 C 
ENDBRANCH  20  23
ENDBRANCH  16  17
ENDBRANCH  14  16
ENDBRANCH   1  14
TORSDOF 6
ENDMDL
MODEL 8
REMARK VINA RESULT:      -7.1      1.898      8.429
REMARK  6 active torsions:
REMARK  status: ('A' for Active; 'I' for Inactive)
REMARK    1  A    between atoms: C_8  and  S_23 
REMARK    2  A    between atoms: C_9  and  C_11 
REMARK    3  A    between atoms: C_11  and  N_12 
REMARK    4  A    between atoms: N_12  and  C_13 
REMARK    5  A    between atoms: C_13  and  C_14 
REMARK    6  A    between atoms: C_17  and  N_20 
ROOT
HETATM    1  C           1     174.683 186.148 283.121  0.00  0.00     0.311 C 
ENDROOT
BRANCH   1   2
HETATM    2  C           1     173.751 186.577 282.031  0.00  0.00     0.006 A 
HETATM    3  C           1     173.080 187.784 282.102  0.00  0.00     0.101 A 
HETATM    4  N           1     172.227 188.230 281.154  0.00  0.00    -0.241 NA
HETATM    5  C           1     172.017 187.451 280.077  0.00  0.00     0.068 A 
HETATM    6  C           1     171.147 187.878 279.084  0.00  0.00     0.032 A 
HETATM    7  C           1     172.655 186.203 279.913  0.00  0.00    -0.007 A 
HETATM    8  C           1     170.895 187.107 277.944  0.00  0.00     0.002 A 
HETATM    9  C           1     171.525 185.877 277.787  0.00  0.00     0.001 A 
HETATM   10  C           1     172.404 185.424 278.769  0.00  0.00     0.014 A 
HETATM   11  C           1     173.533 185.775 280.918  0.00  0.00     0.025 A 
BRANCH   3  12
HETATM   12  S           1     173.364 188.832 283.556  0.00  0.00    -0.114 SA
HETATM   13  C           1     171.975 188.133 284.490  0.00  0.00     0.097 C 
ENDBRANCH   3  12
ENDBRANCH   1   2
BRANCH   1  14
HETATM   14  N           1     174.162 184.972 283.765  0.00  0.00     0.091 N 
HETATM   15  H           1     173.189 185.132 284.027  0.00  0.00     0.316 HD
BRANCH  14  16
HETATM   16  C           1     174.945 184.739 284.948  0.00  0.00     0.308 C 
BRANCH  16  17
HETATM   17  C           1     174.136 185.086 286.159  0.00  0.00    -0.030 A 
HETATM   18  C           1     174.767 185.574 287.303  0.00  0.00     0.011 A 
HETATM   19  C           1     174.013 185.897 288.431  0.00  0.00     0.030 A 
HETATM   20  C           1     172.629 185.732 288.415  0.00  0.00     0.029 A 
HETATM   21  C           1     171.997 185.245 287.271  0.00  0.00     0.030 A 
HETATM   22  C           1     172.750 184.921 286.143  0.00  0.00     0.011 A 
BRANCH  20  23
HETATM   23  N           1     171.944 186.025 289.439  0.00  0.00    -0.390 N 
HETATM   24  C           1     172.460 186.990 290.420  0.00  0.00     0.149 C 
HETATM   25  C           1     170.629 185.400 289.645  0.00  0.00     0.149 C 
ENDBRANCH  20  23
ENDBRANCH  16  17
ENDBRANCH  14  16
ENDBRANCH   1  14
TORSDOF 6
ENDMDL
MODEL 9
REMARK VINA RESULT:      -7.0      2.138      4.252
REMARK  6 active torsions:
REMARK  status: ('A' for Active; 'I' for Inactive)
REMARK    1  A    between atoms: C_8  and  S_23 
REMARK    2  A    between atoms: C_9  and  C_11 
REMARK    3  A    between atoms: C_11  and  N_12 
REMARK    4  A    between atoms: N_12  and  C_13 
REMARK    5  A    between atoms: C_13  and  C_14 
REMARK    6  A    between atoms: C_17  and  N_20 
ROOT
HETATM    1  C           1     172.619 187.231 283.734  0.00  0.00     0.311 C 
ENDROOT
BRANCH   1   2
HETATM    2  C           1     173.034 186.860 285.124  0.00  0.00     0.006 A 
HETATM    3  C           1     174.023 185.920 285.345  0.00  0.00     0.101 A 
HETATM    4  N           1     174.444 185.541 286.572  0.00  0.00    -0.241 NA
HETATM    5  C           1     173.864 186.114 287.642  0.00  0.00     0.068 A 
HETATM    6  C           1     174.272 185.748 288.918  0.00  0.00     0.032 A 
HETATM    7  C           1     172.846 187.084 287.521  0.00  0.00    -0.007 A 
HETATM    8  C           1     173.702 186.314 290.063  0.00  0.00     0.002 A 
HETATM    9  C           1     172.698 187.269 289.938  0.00  0.00     0.001 A 
HETATM   10  C           1     172.270 187.654 288.670  0.00  0.00     0.014 A 
HETATM   11  C           1     172.437 187.450 286.231  0.00  0.00     0.025 A 
BRANCH   3  12
HETATM   12  S           1     174.804 185.149 283.899  0.00  0.00    -0.114 SA
HETATM   13  C           1     176.114 186.399 283.781  0.00  0.00     0.097 C 
ENDBRANCH   3  12
ENDBRANCH   1   2
BRANCH   1  14
HETATM   14  N           1     172.603 188.663 283.603  0.00  0.00     0.091 N 
HETATM   15  H           1     171.698 188.961 283.239  0.00  0.00     0.316 HD
BRANCH  14  16
HETATM   16  C           1     173.638 189.029 282.674  0.00  0.00     0.308 C 
BRANCH  16  17
HETATM   17  C           1     173.491 188.223 281.421  0.00  0.00    -0.030 A 
HETATM   18  C           1     172.222 187.971 280.898  0.00  0.00     0.011 A 
HETATM   19  C           1     172.086 187.221 279.730  0.00  0.00     0.030 A 
HETATM   20  C           1     173.217 186.722 279.086  0.00  0.00     0.029 A 
HETATM   21  C           1     174.486 186.974 279.608  0.00  0.00     0.030 A 
HETATM   22  C           1     174.623 187.724 280.776  0.00  0.00     0.011 A 
BRANCH  20  23
HETATM   23  N           1     173.094 186.041 278.026  0.00  0.00    -0.390 N 
HETATM   24  C           1     171.850 185.303 277.765  0.00  0.00     0.149 C 
HETATM   25  C           1     174.197 185.988 277.056  0.00  0.00     0.149 C 
ENDBRANCH  20  23
ENDBRANCH  16  17
ENDBRANCH  14  16
ENDBRANCH   1  14
TORSDOF 6
ENDMDL
