MODEL 1
REMARK VINA RESULT:      -7.6      0.000      0.000
REMARK  8 active torsions:
REMARK  status: ('A' for Active; 'I' for Inactive)
REMARK    1  A    between atoms: C_8  and  S_21 
REMARK    2  A    between atoms: C_9  and  C_11 
REMARK    3  A    between atoms: C_11  and  N_12 
REMARK    4  A    between atoms: N_12  and  C_13 
REMARK    5  A    between atoms: C_13  and  C_14 
REMARK    6  A    between atoms: C_14  and  C_15 
REMARK    7  A    between atoms: S_21  and  C_22 
REMARK    8  A    between atoms: C_22  and  C_23 
ROOT
HETATM    1  C           1     177.978 185.860 275.903  0.00  0.00     0.001 A 
HETATM    2  C           1     176.967 185.087 276.461  0.00  0.00     0.002 A 
HETATM    3  C           1     175.782 184.871 275.752  0.00  0.00     0.032 A 
HETATM    4  C           1     175.577 185.410 274.489  0.00  0.00     0.068 A 
HETATM    5  C           1     176.608 186.195 273.926  0.00  0.00    -0.007 A 
HETATM    6  C           1     177.801 186.414 274.636  0.00  0.00     0.014 A 
HETATM    7  N           1     174.419 185.173 273.846  0.00  0.00    -0.241 NA
HETATM    8  C           1     174.255 185.714 272.619  0.00  0.00     0.102 A 
HETATM    9  C           1     175.202 186.494 271.985  0.00  0.00     0.006 A 
HETATM   10  C           1     176.397 186.737 272.651  0.00  0.00     0.025 A 
ENDROOT
BRANCH   9  11
HETATM   11  C           1     174.951 187.060 270.622  0.00  0.00     0.311 C 
BRANCH  11  12
HETATM   12  N           1     174.465 188.409 270.745  0.00  0.00     0.087 N 
HETATM   13  H           1     173.475 188.437 270.503  0.00  0.00     0.316 HD
BRANCH  12  14
HETATM   14  C           1     175.208 189.226 269.824  0.00  0.00     0.276 C 
BRANCH  14  15
HETATM   15  C           1     175.115 188.627 268.426  0.00  0.00     0.087 C 
BRANCH  15  16
HETATM   16  C           1     173.792 188.979 267.819  0.00  0.00     0.012 A 
HETATM   17  C           1     173.180 190.211 267.869  0.00  0.00     0.026 A 
HETATM   18  C           1     171.953 190.101 267.172  0.00  0.00     0.019 A 
HETATM   19  C           1     171.854 188.805 266.717  0.00  0.00     0.090 A 
HETATM   20  N           1     172.978 188.129 267.116  0.00  0.00    -0.364 N 
HETATM   21  C           1     173.266 186.715 266.833  0.00  0.00     0.155 C 
ENDBRANCH  15  16
ENDBRANCH  14  15
ENDBRANCH  12  14
ENDBRANCH  11  12
ENDBRANCH   9  11
BRANCH   8  22
HETATM   22  S           1     172.692 185.396 271.750  0.00  0.00    -0.105 SA
BRANCH  22  23
HETATM   23  C           1     173.001 183.615 271.584  0.00  0.00     0.119 C 
BRANCH  23  24
HETATM   24  C           1     174.097 183.389 270.588  0.00  0.00    -0.049 A 
HETATM   25  C           1     173.893 183.702 269.245  0.00  0.00     0.008 A 
HETATM   26  C           1     174.913 183.490 268.317  0.00  0.00     0.001 A 
HETATM   27  C           1     176.137 182.965 268.734  0.00  0.00     0.000 A 
HETATM   28  C           1     176.340 182.652 270.078  0.00  0.00     0.001 A 
HETATM   29  C           1     175.319 182.864 271.006  0.00  0.00     0.008 A 
ENDBRANCH  23  24
ENDBRANCH  22  23
ENDBRANCH   8  22
TORSDOF 8
ENDMDL
MODEL 2
REMARK VINA RESULT:      -7.5      2.264      3.382
REMARK  8 active torsions:
REMARK  status: ('A' for Active; 'I' for Inactive)
REMARK    1  A    between atoms: C_8  and  S_21 
REMARK    2  A    between atoms: C_9  and  C_11 
REMARK    3  A    between atoms: C_11  and  N_12 
REMARK    4  A    between atoms: N_12  and  C_13 
REMARK    5  A    between atoms: C_13  and  C_14 
REMARK    6  A    between atoms: C_14  and  C_15 
REMARK    7  A    between atoms: S_21  and  C_22 
REMARK    8  A    between atoms: C_22  and  C_23 
ROOT
HETATM    1  C           1     177.989 185.646 276.186  0.00  0.00     0.001 A 
HETATM    2  C           1     176.932 184.807 276.520  0.00  0.00     0.002 A 
HETATM    3  C           1     175.771 184.805 275.742  0.00  0.00     0.032 A 
HETATM    4  C           1     175.635 185.625 274.630  0.00  0.00     0.068 A 
HETATM    5  C           1     176.711 186.475 274.294  0.00  0.00    -0.007 A 
HETATM    6  C           1     177.880 186.480 275.074  0.00  0.00     0.014 A 
HETATM    7  N           1     174.496 185.587 273.912  0.00  0.00    -0.241 NA
HETATM    8  C           1     174.399 186.398 272.837  0.00  0.00     0.102 A 
HETATM    9  C           1     175.396 187.263 272.428  0.00  0.00     0.006 A 
HETATM   10  C           1     176.570 187.300 273.171  0.00  0.00     0.025 A 
ENDROOT
BRANCH   9  11
HETATM   11  C           1     175.218 188.133 271.223  0.00  0.00     0.311 C 
BRANCH  11  12
HETATM   12  N           1     175.872 189.395 271.442  0.00  0.00     0.087 N 
HETATM   13  H           1     175.516 189.819 272.299  0.00  0.00     0.316 HD
BRANCH  12  14
HETATM   14  C           1     175.566 190.246 270.324  0.00  0.00     0.276 C 
BRANCH  14  15
HETATM   15  C           1     174.188 190.866 270.519  0.00  0.00     0.087 C 
BRANCH  15  16
HETATM   16  C           1     174.233 191.832 271.662  0.00  0.00     0.012 A 
HETATM   17  C           1     174.864 193.056 271.663  0.00  0.00     0.026 A 
HETATM   18  C           1     174.657 193.636 272.938  0.00  0.00     0.019 A 
HETATM   19  C           1     173.908 192.748 273.677  0.00  0.00     0.090 A 
HETATM   20  N           1     173.654 191.653 272.892  0.00  0.00    -0.364 N 
HETATM   21  C           1     172.882 190.471 273.304  0.00  0.00     0.155 C 
ENDBRANCH  15  16
ENDBRANCH  14  15
ENDBRANCH  12  14
ENDBRANCH  11  12
ENDBRANCH   9  11
BRANCH   8  22
HETATM   22  S           1     172.864 186.348 271.868  0.00  0.00    -0.105 SA
BRANCH  22  23
HETATM   23  C           1     172.939 184.554 271.606  0.00  0.00     0.119 C 
BRANCH  23  24
HETATM   24  C           1     174.161 184.216 270.808  0.00  0.00    -0.049 A 
HETATM   25  C           1     175.069 183.273 271.289  0.00  0.00     0.008 A 
HETATM   26  C           1     176.207 182.959 270.546  0.00  0.00     0.001 A 
HETATM   27  C           1     176.436 183.588 269.322  0.00  0.00     0.000 A 
HETATM   28  C           1     175.527 184.530 268.841  0.00  0.00     0.001 A 
HETATM   29  C           1     174.389 184.844 269.584  0.00  0.00     0.008 A 
ENDBRANCH  23  24
ENDBRANCH  22  23
ENDBRANCH   8  22
TORSDOF 8
ENDMDL
MODEL 3
REMARK VINA RESULT:      -7.3     13.732     17.890
REMARK  8 active torsions:
REMARK  status: ('A' for Active; 'I' for Inactive)
REMARK    1  A    between atoms: C_8  and  S_21 
REMARK    2  A    between atoms: C_9  and  C_11 
REMARK    3  A    between atoms: C_11  and  N_12 
REMARK    4  A    between atoms: N_12  and  C_13 
REMARK    5  A    between atoms: C_13  and  C_14 
REMARK    6  A    between atoms: C_14  and  C_15 
REMARK    7  A    between atoms: S_21  and  C_22 
REMARK    8  A    between atoms: C_22  and  C_23 
ROOT
HETATM    1  C           1     170.937 186.790 293.843  0.00  0.00     0.001 A 
HETATM    2  C           1     169.715 187.272 293.388  0.00  0.00     0.002 A 
HETATM    3  C           1     169.521 187.499 292.022  0.00  0.00     0.032 A 
HETATM    4  C           1     170.522 187.257 291.091  0.00  0.00     0.068 A 
HETATM    5  C           1     171.761 186.767 291.559  0.00  0.00    -0.007 A 
HETATM    6  C           1     171.960 186.537 292.931  0.00  0.00     0.014 A 
HETATM    7  N           1     170.286 187.492 289.787  0.00  0.00    -0.241 NA
HETATM    8  C           1     171.283 187.245 288.909  0.00  0.00     0.102 A 
HETATM    9  C           1     172.528 186.766 289.269  0.00  0.00     0.006 A 
HETATM   10  C           1     172.768 186.524 290.616  0.00  0.00     0.025 A 
ENDROOT
BRANCH   9  11
HETATM   11  C           1     173.586 186.514 288.239  0.00  0.00     0.311 C 
BRANCH  11  12
HETATM   12  N           1     173.741 185.097 288.048  0.00  0.00     0.087 N 
HETATM   13  H           1     174.695 184.825 288.287  0.00  0.00     0.316 HD
BRANCH  12  14
HETATM   14  C           1     173.494 184.815 286.660  0.00  0.00     0.276 C 
BRANCH  14  15
HETATM   15  C           1     174.613 185.409 285.814  0.00  0.00     0.087 C 
BRANCH  15  16
HETATM   16  C           1     174.080 185.766 284.460  0.00  0.00     0.012 A 
HETATM   17  C           1     172.764 185.690 284.063  0.00  0.00     0.026 A 
HETATM   18  C           1     172.706 186.118 282.715  0.00  0.00     0.019 A 
HETATM   19  C           1     173.988 186.442 282.331  0.00  0.00     0.090 A 
HETATM   20  N           1     174.818 186.224 283.399  0.00  0.00    -0.364 N 
HETATM   21  C           1     176.271 186.448 283.408  0.00  0.00     0.155 C 
ENDBRANCH  15  16
ENDBRANCH  14  15
ENDBRANCH  12  14
ENDBRANCH  11  12
ENDBRANCH   9  11
BRANCH   8  22
HETATM   22  S           1     170.967 187.561 287.149  0.00  0.00    -0.105 SA
BRANCH  22  23
HETATM   23  C           1     169.224 187.995 287.411  0.00  0.00     0.119 C 
BRANCH  23  24
HETATM   24  C           1     168.987 189.402 286.957  0.00  0.00    -0.049 A 
HETATM   25  C           1     168.891 190.430 287.895  0.00  0.00     0.008 A 
HETATM   26  C           1     168.669 191.741 287.472  0.00  0.00     0.001 A 
HETATM   27  C           1     168.542 192.024 286.112  0.00  0.00     0.000 A 
HETATM   28  C           1     168.638 190.995 285.175  0.00  0.00     0.001 A 
HETATM   29  C           1     168.860 189.684 285.597  0.00  0.00     0.008 A 
ENDBRANCH  23  24
ENDBRANCH  22  23
ENDBRANCH   8  22
TORSDOF 8
ENDMDL
MODEL 4
REMARK VINA RESULT:      -7.0     13.832     17.957
REMARK  8 active torsions:
REMARK  status: ('A' for Active; 'I' for Inactive)
REMARK    1  A    between atoms: C_8  and  S_21 
REMARK    2  A    between atoms: C_9  and  C_11 
REMARK    3  A    between atoms: C_11  and  N_12 
REMARK    4  A    between atoms: N_12  and  C_13 
REMARK    5  A    between atoms: C_13  and  C_14 
REMARK    6  A    between atoms: C_14  and  C_15 
REMARK    7  A    between atoms: S_21  and  C_22 
REMARK    8  A    between atoms: C_22  and  C_23 
ROOT
HETATM    1  C           1     173.398 185.416 282.914  0.00  0.00     0.001 A 
HETATM    2  C           1     174.423 184.696 283.515  0.00  0.00     0.002 A 
HETATM    3  C           1     174.632 184.799 284.894  0.00  0.00     0.032 A 
HETATM    4  C           1     173.837 185.608 285.695  0.00  0.00     0.068 A 
HETATM    5  C           1     172.797 186.338 285.079  0.00  0.00    -0.007 A 
HETATM    6  C           1     172.584 186.238 283.694  0.00  0.00     0.014 A 
HETATM    7  N           1     174.078 185.674 287.018  0.00  0.00    -0.241 NA
HETATM    8  C           1     173.285 186.472 287.766  0.00  0.00     0.102 A 
HETATM    9  C           1     172.243 187.224 287.257  0.00  0.00     0.006 A 
HETATM   10  C           1     171.997 187.153 285.891  0.00  0.00     0.025 A 
ENDROOT
BRANCH   9  11
HETATM   11  C           1     171.405 188.086 288.148  0.00  0.00     0.311 C 
BRANCH  11  12
HETATM   12  N           1     170.041 188.061 287.695  0.00  0.00     0.087 N 
HETATM   13  H           1     170.016 188.201 286.684  0.00  0.00     0.316 HD
BRANCH  12  14
HETATM   14  C           1     169.345 189.139 288.345  0.00  0.00     0.276 C 
BRANCH  14  15
HETATM   15  C           1     168.126 189.528 287.518  0.00  0.00     0.087 C 
BRANCH  15  16
HETATM   16  C           1     168.387 190.830 286.826  0.00  0.00     0.012 A 
HETATM   17  C           1     168.437 192.069 287.424  0.00  0.00     0.026 A 
HETATM   18  C           1     168.707 193.017 286.408  0.00  0.00     0.019 A 
HETATM   19  C           1     168.813 192.328 285.221  0.00  0.00     0.090 A 
HETATM   20  N           1     168.617 190.997 285.484  0.00  0.00    -0.364 N 
HETATM   21  C           1     168.649 189.918 284.486  0.00  0.00     0.155 C 
ENDBRANCH  15  16
ENDBRANCH  14  15
ENDBRANCH  12  14
ENDBRANCH  11  12
ENDBRANCH   9  11
BRANCH   8  22
HETATM   22  S           1     173.608 186.561 289.551  0.00  0.00    -0.105 SA
BRANCH  22  23
HETATM   23  C           1     172.250 185.437 289.981  0.00  0.00     0.119 C 
BRANCH  23  24
HETATM   24  C           1     171.474 186.007 291.128  0.00  0.00    -0.049 A 
HETATM   25  C           1     170.080 185.990 291.102  0.00  0.00     0.008 A 
HETATM   26  C           1     169.356 186.522 292.170  0.00  0.00     0.001 A 
HETATM   27  C           1     170.028 187.071 293.263  0.00  0.00     0.000 A 
HETATM   28  C           1     171.422 187.087 293.287  0.00  0.00     0.001 A 
HETATM   29  C           1     172.146 186.555 292.220  0.00  0.00     0.008 A 
ENDBRANCH  23  24
ENDBRANCH  22  23
ENDBRANCH   8  22
TORSDOF 8
ENDMDL
MODEL 5
REMARK VINA RESULT:      -7.0      2.850      6.276
REMARK  8 active torsions:
REMARK  status: ('A' for Active; 'I' for Inactive)
REMARK    1  A    between atoms: C_8  and  S_21 
REMARK    2  A    between atoms: C_9  and  C_11 
REMARK    3  A    between atoms: C_11  and  N_12 
REMARK    4  A    between atoms: N_12  and  C_13 
REMARK    5  A    between atoms: C_13  and  C_14 
REMARK    6  A    between atoms: C_14  and  C_15 
REMARK    7  A    between atoms: S_21  and  C_22 
REMARK    8  A    between atoms: C_22  and  C_23 
ROOT
HETATM    1  C           1     173.818 189.991 268.118  0.00  0.00     0.001 A 
HETATM    2  C           1     173.399 190.135 269.435  0.00  0.00     0.002 A 
HETATM    3  C           1     173.592 189.092 270.346  0.00  0.00     0.032 A 
HETATM    4  C           1     174.198 187.900 269.974  0.00  0.00     0.068 A 
HETATM    5  C           1     174.622 187.758 268.634  0.00  0.00    -0.007 A 
HETATM    6  C           1     174.429 188.804 267.715  0.00  0.00     0.014 A 
HETATM    7  N           1     174.362 186.925 270.887  0.00  0.00    -0.241 NA
HETATM    8  C           1     174.954 185.778 270.489  0.00  0.00     0.102 A 
HETATM    9  C           1     175.402 185.545 269.204  0.00  0.00     0.006 A 
HETATM   10  C           1     175.232 186.553 268.263  0.00  0.00     0.025 A 
ENDROOT
BRANCH   9  11
HETATM   11  C           1     176.051 184.247 268.835  0.00  0.00     0.311 C 
BRANCH  11  12
HETATM   12  N           1     177.473 184.436 268.728  0.00  0.00     0.087 N 
HETATM   13  H           1     177.721 185.361 269.080  0.00  0.00     0.316 HD
BRANCH  12  14
HETATM   14  C           1     177.822 184.344 267.336  0.00  0.00     0.276 C 
BRANCH  14  15
HETATM   15  C           1     176.990 183.252 266.675  0.00  0.00     0.087 C 
BRANCH  15  16
HETATM   16  C           1     176.636 183.669 265.281  0.00  0.00     0.012 A 
HETATM   17  C           1     175.803 184.710 264.934  0.00  0.00     0.026 A 
HETATM   18  C           1     175.746 184.751 263.521  0.00  0.00     0.019 A 
HETATM   19  C           1     176.545 183.734 263.047  0.00  0.00     0.090 A 
HETATM   20  N           1     177.083 183.081 264.126  0.00  0.00    -0.364 N 
HETATM   21  C           1     177.996 181.931 264.056  0.00  0.00     0.155 C 
ENDBRANCH  15  16
ENDBRANCH  14  15
ENDBRANCH  12  14
ENDBRANCH  11  12
ENDBRANCH   9  11
BRANCH   8  22
HETATM   22  S           1     175.176 184.462 271.721  0.00  0.00    -0.105 SA
BRANCH  22  23
HETATM   23  C           1     174.647 185.500 273.112  0.00  0.00     0.119 C 
BRANCH  23  24
HETATM   24  C           1     175.766 185.618 274.101  0.00  0.00    -0.049 A 
HETATM   25  C           1     175.633 185.062 275.372  0.00  0.00     0.008 A 
HETATM   26  C           1     176.675 185.173 276.294  0.00  0.00     0.001 A 
HETATM   27  C           1     177.849 185.840 275.943  0.00  0.00     0.000 A 
HETATM   28  C           1     177.980 186.397 274.671  0.00  0.00     0.001 A 
HETATM   29  C           1     176.938 186.286 273.749  0.00  0.00     0.008 A 
ENDBRANCH  23  24
ENDBRANCH  22  23
ENDBRANCH   8  22
TORSDOF 8
ENDMDL
MODEL 6
REMARK VINA RESULT:      -6.9      2.307      5.739
REMARK  8 active torsions:
REMARK  status: ('A' for Active; 'I' for Inactive)
REMARK    1  A    between atoms: C_8  and  S_21 
REMARK    2  A    between atoms: C_9  and  C_11 
REMARK    3  A    between atoms: C_11  and  N_12 
REMARK    4  A    between atoms: N_12  and  C_13 
REMARK    5  A    between atoms: C_13  and  C_14 
REMARK    6  A    between atoms: C_14  and  C_15 
REMARK    7  A    between atoms: S_21  and  C_22 
REMARK    8  A    between atoms: C_22  and  C_23 
ROOT
HETATM    1  C           1     176.632 185.030 276.147  0.00  0.00     0.001 A 
HETATM    2  C           1     177.668 185.735 275.547  0.00  0.00     0.002 A 
HETATM    3  C           1     177.449 186.401 274.337  0.00  0.00     0.032 A 
HETATM    4  C           1     176.212 186.382 273.706  0.00  0.00     0.068 A 
HETATM    5  C           1     175.163 185.665 274.321  0.00  0.00    -0.007 A 
HETATM    6  C           1     175.379 184.993 275.537  0.00  0.00     0.014 A 
HETATM    7  N           1     176.050 187.040 272.543  0.00  0.00    -0.241 NA
HETATM    8  C           1     174.834 186.999 271.958  0.00  0.00     0.102 A 
HETATM    9  C           1     173.746 186.325 272.480  0.00  0.00     0.006 A 
HETATM   10  C           1     173.916 185.648 273.681  0.00  0.00     0.025 A 
ENDROOT
BRANCH   9  11
HETATM   11  C           1     172.426 186.325 271.774  0.00  0.00     0.311 C 
BRANCH  11  12
HETATM   12  N           1     172.026 184.970 271.506  0.00  0.00     0.087 N 
HETATM   13  H           1     172.514 184.339 272.142  0.00  0.00     0.316 HD
BRANCH  12  14
HETATM   14  C           1     172.398 184.666 270.150  0.00  0.00     0.276 C 
BRANCH  14  15
HETATM   15  C           1     173.130 183.331 270.112  0.00  0.00     0.087 C 
BRANCH  15  16
HETATM   16  C           1     174.605 183.573 270.010  0.00  0.00     0.012 A 
HETATM   17  C           1     175.512 183.492 271.043  0.00  0.00     0.026 A 
HETATM   18  C           1     176.787 183.796 270.510  0.00  0.00     0.019 A 
HETATM   19  C           1     176.620 184.054 269.168  0.00  0.00     0.090 A 
HETATM   20  N           1     175.289 183.916 268.873  0.00  0.00    -0.364 N 
HETATM   21  C           1     174.687 184.105 267.544  0.00  0.00     0.155 C 
ENDBRANCH  15  16
ENDBRANCH  14  15
ENDBRANCH  12  14
ENDBRANCH  11  12
ENDBRANCH   9  11
BRANCH   8  22
HETATM   22  S           1     174.614 187.886 270.388  0.00  0.00    -0.105 SA
BRANCH  22  23
HETATM   23  C           1     175.596 189.318 270.913  0.00  0.00     0.119 C 
BRANCH  23  24
HETATM   24  C           1     174.705 190.513 271.047  0.00  0.00    -0.049 A 
HETATM   25  C           1     173.320 190.350 271.076  0.00  0.00     0.008 A 
HETATM   26  C           1     172.489 191.464 271.200  0.00  0.00     0.001 A 
HETATM   27  C           1     173.044 192.741 271.295  0.00  0.00     0.000 A 
HETATM   28  C           1     174.429 192.903 271.266  0.00  0.00     0.001 A 
HETATM   29  C           1     175.260 191.789 271.142  0.00  0.00     0.008 A 
ENDBRANCH  23  24
ENDBRANCH  22  23
ENDBRANCH   8  22
TORSDOF 8
ENDMDL
MODEL 7
REMARK VINA RESULT:      -6.9      1.347      1.783
REMARK  8 active torsions:
REMARK  status: ('A' for Active; 'I' for Inactive)
REMARK    1  A    between atoms: C_8  and  S_21 
REMARK    2  A    between atoms: C_9  and  C_11 
REMARK    3  A    between atoms: C_11  and  N_12 
REMARK    4  A    between atoms: N_12  and  C_13 
REMARK    5  A    between atoms: C_13  and  C_14 
REMARK    6  A    between atoms: C_14  and  C_15 
REMARK    7  A    between atoms: S_21  and  C_22 
REMARK    8  A    between atoms: C_22  and  C_23 
ROOT
HETATM    1  C           1     177.733 186.112 276.130  0.00  0.00     0.001 A 
HETATM    2  C           1     176.597 185.596 276.740  0.00  0.00     0.002 A 
HETATM    3  C           1     175.455 185.332 275.977  0.00  0.00     0.032 A 
HETATM    4  C           1     175.418 185.572 274.610  0.00  0.00     0.068 A 
HETATM    5  C           1     176.575 186.097 273.995  0.00  0.00    -0.007 A 
HETATM    6  C           1     177.725 186.364 274.758  0.00  0.00     0.014 A 
HETATM    7  N           1     174.295 185.301 273.919  0.00  0.00    -0.241 NA
HETATM    8  C           1     174.295 185.547 272.591  0.00  0.00     0.102 A 
HETATM    9  C           1     175.376 186.059 271.899  0.00  0.00     0.006 A 
HETATM   10  C           1     176.534 186.337 272.615  0.00  0.00     0.025 A 
ENDROOT
BRANCH   9  11
HETATM   11  C           1     175.303 186.306 270.425  0.00  0.00     0.311 C 
BRANCH  11  12
HETATM   12  N           1     174.890 187.663 270.185  0.00  0.00     0.087 N 
HETATM   13  H           1     173.949 187.802 270.556  0.00  0.00     0.316 HD
BRANCH  12  14
HETATM   14  C           1     174.881 187.872 268.763  0.00  0.00     0.276 C 
BRANCH  14  15
HETATM   15  C           1     175.245 186.573 268.056  0.00  0.00     0.087 C 
BRANCH  15  16
HETATM   16  C           1     174.246 186.294 266.976  0.00  0.00     0.012 A 
HETATM   17  C           1     172.946 186.746 266.940  0.00  0.00     0.026 A 
HETATM   18  C           1     172.360 186.250 265.750  0.00  0.00     0.019 A 
HETATM   19  C           1     173.320 185.511 265.097  0.00  0.00     0.090 A 
HETATM   20  N           1     174.465 185.543 265.850  0.00  0.00    -0.364 N 
HETATM   21  C           1     175.730 184.877 265.505  0.00  0.00     0.155 C 
ENDBRANCH  15  16
ENDBRANCH  14  15
ENDBRANCH  12  14
ENDBRANCH  11  12
ENDBRANCH   9  11
BRANCH   8  22
HETATM   22  S           1     172.781 185.182 271.657  0.00  0.00    -0.105 SA
BRANCH  22  23
HETATM   23  C           1     173.069 183.391 271.645  0.00  0.00     0.119 C 
BRANCH  23  24
HETATM   24  C           1     173.977 183.038 270.508  0.00  0.00    -0.049 A 
HETATM   25  C           1     173.501 183.082 269.197  0.00  0.00     0.008 A 
HETATM   26  C           1     174.346 182.752 268.137  0.00  0.00     0.001 A 
HETATM   27  C           1     175.667 182.379 268.389  0.00  0.00     0.000 A 
HETATM   28  C           1     176.142 182.335 269.700  0.00  0.00     0.001 A 
HETATM   29  C           1     175.296 182.665 270.760  0.00  0.00     0.008 A 
ENDBRANCH  23  24
ENDBRANCH  22  23
ENDBRANCH   8  22
TORSDOF 8
ENDMDL
MODEL 8
REMARK VINA RESULT:      -6.9      7.764     11.418
REMARK  8 active torsions:
REMARK  status: ('A' for Active; 'I' for Inactive)
REMARK    1  A    between atoms: C_8  and  S_21 
REMARK    2  A    between atoms: C_9  and  C_11 
REMARK    3  A    between atoms: C_11  and  N_12 
REMARK    4  A    between atoms: N_12  and  C_13 
REMARK    5  A    between atoms: C_13  and  C_14 
REMARK    6  A    between atoms: C_14  and  C_15 
REMARK    7  A    between atoms: S_21  and  C_22 
REMARK    8  A    between atoms: C_22  and  C_23 
ROOT
HETATM    1  C           1     174.706 184.658 284.478  0.00  0.00     0.001 A 
HETATM    2  C           1     174.239 185.702 285.268  0.00  0.00     0.002 A 
HETATM    3  C           1     173.559 186.771 284.677  0.00  0.00     0.032 A 
HETATM    4  C           1     173.330 186.826 283.309  0.00  0.00     0.068 A 
HETATM    5  C           1     173.806 185.762 282.512  0.00  0.00    -0.007 A 
HETATM    6  C           1     174.491 184.686 283.101  0.00  0.00     0.014 A 
HETATM    7  N           1     172.669 187.877 282.788  0.00  0.00    -0.241 NA
HETATM    8  C           1     172.465 187.896 281.453  0.00  0.00     0.102 A 
HETATM    9  C           1     172.891 186.905 280.591  0.00  0.00     0.006 A 
HETATM   10  C           1     173.573 185.821 281.131  0.00  0.00     0.025 A 
ENDROOT
BRANCH   9  11
HETATM   11  C           1     172.628 186.994 279.120  0.00  0.00     0.311 C 
BRANCH  11  12
HETATM   12  N           1     173.296 185.914 278.447  0.00  0.00     0.087 N 
HETATM   13  H           1     173.858 185.389 279.118  0.00  0.00     0.316 HD
BRANCH  12  14
HETATM   14  C           1     174.156 186.487 277.447  0.00  0.00     0.276 C 
BRANCH  14  15
HETATM   15  C           1     174.457 185.446 276.377  0.00  0.00     0.087 C 
BRANCH  15  16
HETATM   16  C           1     175.759 185.772 275.714  0.00  0.00     0.012 A 
HETATM   17  C           1     177.011 185.615 276.266  0.00  0.00     0.026 A 
HETATM   18  C           1     177.954 186.043 275.302  0.00  0.00     0.019 A 
HETATM   19  C           1     177.250 186.448 274.190  0.00  0.00     0.090 A 
HETATM   20  N           1     175.915 186.280 274.450  0.00  0.00    -0.364 N 
HETATM   21  C           1     174.820 186.593 273.519  0.00  0.00     0.155 C 
ENDBRANCH  15  16
ENDBRANCH  14  15
ENDBRANCH  12  14
ENDBRANCH  11  12
ENDBRANCH   9  11
BRANCH   8  22
HETATM   22  S           1     171.573 189.313 280.749  0.00  0.00    -0.105 SA
BRANCH  22  23
HETATM   23  C           1     172.372 190.521 281.843  0.00  0.00     0.119 C 
BRANCH  23  24
HETATM   24  C           1     171.331 191.208 282.672  0.00  0.00    -0.049 A 
HETATM   25  C           1     170.246 190.486 283.166  0.00  0.00     0.008 A 
HETATM   26  C           1     169.276 191.127 283.938  0.00  0.00     0.001 A 
HETATM   27  C           1     169.392 192.489 284.215  0.00  0.00     0.000 A 
HETATM   28  C           1     170.479 193.211 283.720  0.00  0.00     0.001 A 
HETATM   29  C           1     171.449 192.570 282.948  0.00  0.00     0.008 A 
ENDBRANCH  23  24
ENDBRANCH  22  23
ENDBRANCH   8  22
TORSDOF 8
ENDMDL
MODEL 9
REMARK VINA RESULT:      -6.8      7.305     11.174
REMARK  8 active torsions:
REMARK  status: ('A' for Active; 'I' for Inactive)
REMARK    1  A    between atoms: C_8  and  S_21 
REMARK    2  A    between atoms: C_9  and  C_11 
REMARK    3  A    between atoms: C_11  and  N_12 
REMARK    4  A    between atoms: N_12  and  C_13 
REMARK    5  A    between atoms: C_13  and  C_14 
REMARK    6  A    between atoms: C_14  and  C_15 
REMARK    7  A    between atoms: S_21  and  C_22 
REMARK    8  A    between atoms: C_22  and  C_23 
ROOT
HETATM    1  C           1     170.402 191.172 280.774  0.00  0.00     0.001 A 
HETATM    2  C           1     171.031 191.298 282.007  0.00  0.00     0.002 A 
HETATM    3  C           1     171.908 190.301 282.447  0.00  0.00     0.032 A 
HETATM    4  C           1     172.175 189.174 281.684  0.00  0.00     0.068 A 
HETATM    5  C           1     171.534 189.050 280.431  0.00  0.00    -0.007 A 
HETATM    6  C           1     170.652 190.049 279.985  0.00  0.00     0.014 A 
HETATM    7  N           1     173.027 188.242 282.151  0.00  0.00    -0.241 NA
HETATM    8  C           1     173.264 187.158 281.381  0.00  0.00     0.102 A 
HETATM    9  C           1     172.685 186.947 280.144  0.00  0.00     0.006 A 
HETATM   10  C           1     171.807 187.911 279.663  0.00  0.00     0.025 A 
ENDROOT
BRANCH   9  11
HETATM   11  C           1     172.996 185.720 279.345  0.00  0.00     0.311 C 
BRANCH  11  12
HETATM   12  N           1     172.875 186.017 277.943  0.00  0.00     0.087 N 
HETATM   13  H           1     172.464 185.218 277.459  0.00  0.00     0.316 HD
BRANCH  12  14
HETATM   14  C           1     174.198 186.258 277.432  0.00  0.00     0.276 C 
BRANCH  14  15
HETATM   15  C           1     174.446 185.364 276.224  0.00  0.00     0.087 C 
BRANCH  15  16
HETATM   16  C           1     175.751 185.735 275.588  0.00  0.00     0.012 A 
HETATM   17  C           1     176.950 185.906 276.242  0.00  0.00     0.026 A 
HETATM   18  C           1     177.917 186.250 275.267  0.00  0.00     0.019 A 
HETATM   19  C           1     177.278 186.279 274.047  0.00  0.00     0.090 A 
HETATM   20  N           1     175.960 185.964 274.253  0.00  0.00    -0.364 N 
HETATM   21  C           1     174.931 185.883 273.205  0.00  0.00     0.155 C 
ENDBRANCH  15  16
ENDBRANCH  14  15
ENDBRANCH  12  14
ENDBRANCH  11  12
ENDBRANCH   9  11
BRANCH   8  22
HETATM   22  S           1     174.413 185.900 282.010  0.00  0.00    -0.105 SA
BRANCH  22  23
HETATM   23  C           1     173.159 185.089 283.040  0.00  0.00     0.119 C 
BRANCH  23  24
HETATM   24  C           1     173.547 185.205 284.483  0.00  0.00    -0.049 A 
HETATM   25  C           1     172.659 185.766 285.400  0.00  0.00     0.008 A 
HETATM   26  C           1     173.020 185.875 286.743  0.00  0.00     0.001 A 
HETATM   27  C           1     174.269 185.422 287.168  0.00  0.00     0.000 A 
HETATM   28  C           1     175.157 184.861 286.250  0.00  0.00     0.001 A 
HETATM   29  C           1     174.795 184.752 284.907  0.00  0.00     0.008 A 
ENDBRANCH  23  24
ENDBRANCH  22  23
ENDBRANCH   8  22
TORSDOF 8
ENDMDL
