MODEL 1
REMARK VINA RESULT:      -6.8      0.000      0.000
REMARK  11 active torsions:
REMARK  status: ('A' for Active; 'I' for Inactive)
REMARK    1  A    between atoms: C_8  and  S_22 
REMARK    2  A    between atoms: C_9  and  C_11 
REMARK    3  A    between atoms: C_11  and  N_12 
REMARK    4  A    between atoms: N_12  and  C_14 
REMARK    5  A    between atoms: C_14  and  C_15 
REMARK    6  A    between atoms: C_15  and  C_16 
REMARK    7  A    between atoms: C_16  and  C_17 
REMARK    8  A    between atoms: C_17  and  C_18 
REMARK    9  A    between atoms: C_18  and  N_19 
REMARK   10  A    between atoms: S_22  and  C_23 
REMARK   11  A    between atoms: C_23  and  C_24 
ROOT
HETATM    1  C           1     178.020 185.761 276.101  0.00  0.00     0.001 A 
HETATM    2  C           1     176.996 184.951 276.581  0.00  0.00     0.002 A 
HETATM    3  C           1     175.815 184.811 275.844  0.00  0.00     0.032 A 
HETATM    4  C           1     175.629 185.463 274.632  0.00  0.00     0.068 A 
HETATM    5  C           1     176.671 186.283 274.150  0.00  0.00    -0.007 A 
HETATM    6  C           1     177.860 186.426 274.888  0.00  0.00     0.014 A 
HETATM    7  N           1     174.475 185.296 273.961  0.00  0.00    -0.241 NA
HETATM    8  C           1     174.327 185.945 272.785  0.00  0.00     0.102 A 
HETATM    9  C           1     175.289 186.769 272.231  0.00  0.00     0.006 A 
HETATM   10  C           1     176.479 186.939 272.927  0.00  0.00     0.025 A 
ENDROOT
BRANCH   9  11
HETATM   11  C           1     175.055 187.456 270.922  0.00  0.00     0.311 C 
BRANCH  11  12
HETATM   12  N           1     175.323 188.861 271.061  0.00  0.00     0.087 N 
HETATM   13  H           1     174.577 189.298 271.604  0.00  0.00     0.316 HD
BRANCH  12  14
HETATM   14  C           1     175.354 189.434 269.743  0.00  0.00     0.270 C 
BRANCH  14  15
HETATM   15  C           1     174.831 190.863 269.797  0.00  0.00     0.030 C 
BRANCH  15  16
HETATM   16  C           1     175.780 191.722 270.623  0.00  0.00     0.003 C 
BRANCH  16  17
HETATM   17  C           1     174.980 192.761 271.398  0.00  0.00     0.030 C 
BRANCH  17  18
HETATM   18  C           1     173.682 192.139 271.892  0.00  0.00     0.271 C 
BRANCH  18  19
HETATM   19  N           1     173.845 191.704 273.254  0.00  0.00     0.080 N 
HETATM   20  C           1     173.298 192.724 274.107  0.00  0.00     0.309 C 
HETATM   21  C           1     173.057 190.515 273.430  0.00  0.00     0.309 C 
ENDBRANCH  18  19
ENDBRANCH  17  18
ENDBRANCH  16  17
ENDBRANCH  15  16
ENDBRANCH  14  15
ENDBRANCH  12  14
ENDBRANCH  11  12
ENDBRANCH   9  11
BRANCH   8  22
HETATM   22  S           1     172.771 185.721 271.878  0.00  0.00    -0.105 SA
BRANCH  22  23
HETATM   23  C           1     173.036 183.947 271.606  0.00  0.00     0.119 C 
BRANCH  23  24
HETATM   24  C           1     174.199 183.750 270.685  0.00  0.00    -0.049 A 
HETATM   25  C           1     174.160 184.265 269.390  0.00  0.00     0.008 A 
HETATM   26  C           1     175.243 184.081 268.532  0.00  0.00     0.001 A 
HETATM   27  C           1     176.367 183.380 268.969  0.00  0.00     0.000 A 
HETATM   28  C           1     176.408 182.864 270.264  0.00  0.00     0.001 A 
HETATM   29  C           1     175.324 183.049 271.122  0.00  0.00     0.008 A 
ENDBRANCH  23  24
ENDBRANCH  22  23
ENDBRANCH   8  22
TORSDOF 11
ENDMDL
MODEL 2
REMARK VINA RESULT:      -6.7      2.592      6.117
REMARK  11 active torsions:
REMARK  status: ('A' for Active; 'I' for Inactive)
REMARK    1  A    between atoms: C_8  and  S_22 
REMARK    2  A    between atoms: C_9  and  C_11 
REMARK    3  A    between atoms: C_11  and  N_12 
REMARK    4  A    between atoms: N_12  and  C_14 
REMARK    5  A    between atoms: C_14  and  C_15 
REMARK    6  A    between atoms: C_15  and  C_16 
REMARK    7  A    between atoms: C_16  and  C_17 
REMARK    8  A    between atoms: C_17  and  C_18 
REMARK    9  A    between atoms: C_18  and  N_19 
REMARK   10  A    between atoms: S_22  and  C_23 
REMARK   11  A    between atoms: C_23  and  C_24 
ROOT
HETATM    1  C           1     175.983 182.108 269.660  0.00  0.00     0.001 A 
HETATM    2  C           1     175.399 182.667 268.528  0.00  0.00     0.002 A 
HETATM    3  C           1     175.076 184.028 268.511  0.00  0.00     0.032 A 
HETATM    4  C           1     175.323 184.851 269.601  0.00  0.00     0.068 A 
HETATM    5  C           1     175.917 184.280 270.747  0.00  0.00    -0.007 A 
HETATM    6  C           1     176.243 182.912 270.768  0.00  0.00     0.014 A 
HETATM    7  N           1     174.995 186.154 269.535  0.00  0.00    -0.241 NA
HETATM    8  C           1     175.250 186.927 270.613  0.00  0.00     0.102 A 
HETATM    9  C           1     175.827 186.460 271.779  0.00  0.00     0.006 A 
HETATM   10  C           1     176.166 185.114 271.844  0.00  0.00     0.025 A 
ENDROOT
BRANCH   9  11
HETATM   11  C           1     176.080 187.377 272.935  0.00  0.00     0.311 C 
BRANCH  11  12
HETATM   12  N           1     177.313 187.011 273.578  0.00  0.00     0.087 N 
HETATM   13  H           1     177.549 186.048 273.339  0.00  0.00     0.316 HD
BRANCH  12  14
HETATM   14  C           1     177.116 187.118 274.998  0.00  0.00     0.270 C 
BRANCH  14  15
HETATM   15  C           1     177.545 185.821 275.670  0.00  0.00     0.030 C 
BRANCH  15  16
HETATM   16  C           1     176.319 184.960 275.944  0.00  0.00     0.003 C 
BRANCH  16  17
HETATM   17  C           1     175.109 185.856 276.174  0.00  0.00     0.030 C 
BRANCH  17  18
HETATM   18  C           1     173.979 185.432 275.246  0.00  0.00     0.271 C 
BRANCH  18  19
HETATM   19  N           1     172.982 186.468 275.199  0.00  0.00     0.080 N 
HETATM   20  C           1     173.581 187.675 275.699  0.00  0.00     0.309 C 
HETATM   21  C           1     172.642 186.686 273.819  0.00  0.00     0.309 C 
ENDBRANCH  18  19
ENDBRANCH  17  18
ENDBRANCH  16  17
ENDBRANCH  15  16
ENDBRANCH  14  15
ENDBRANCH  12  14
ENDBRANCH  11  12
ENDBRANCH   9  11
BRANCH   8  22
HETATM   22  S           1     174.808 188.685 270.526  0.00  0.00    -0.105 SA
BRANCH  22  23
HETATM   23  C           1     175.089 188.798 268.737  0.00  0.00     0.119 C 
BRANCH  23  24
HETATM   24  C           1     173.793 189.086 268.044  0.00  0.00    -0.049 A 
HETATM   25  C           1     173.195 190.339 268.174  0.00  0.00     0.008 A 
HETATM   26  C           1     171.989 190.606 267.528  0.00  0.00     0.001 A 
HETATM   27  C           1     171.378 189.620 266.754  0.00  0.00     0.000 A 
HETATM   28  C           1     171.976 188.366 266.624  0.00  0.00     0.001 A 
HETATM   29  C           1     173.183 188.099 267.269  0.00  0.00     0.008 A 
ENDBRANCH  23  24
ENDBRANCH  22  23
ENDBRANCH   8  22
TORSDOF 11
ENDMDL
MODEL 3
REMARK VINA RESULT:      -6.5      4.971      8.462
REMARK  11 active torsions:
REMARK  status: ('A' for Active; 'I' for Inactive)
REMARK    1  A    between atoms: C_8  and  S_22 
REMARK    2  A    between atoms: C_9  and  C_11 
REMARK    3  A    between atoms: C_11  and  N_12 
REMARK    4  A    between atoms: N_12  and  C_14 
REMARK    5  A    between atoms: C_14  and  C_15 
REMARK    6  A    between atoms: C_15  and  C_16 
REMARK    7  A    between atoms: C_16  and  C_17 
REMARK    8  A    between atoms: C_17  and  C_18 
REMARK    9  A    between atoms: C_18  and  N_19 
REMARK   10  A    between atoms: S_22  and  C_23 
REMARK   11  A    between atoms: C_23  and  C_24 
ROOT
HETATM    1  C           1     176.492 185.588 274.485  0.00  0.00     0.001 A 
HETATM    2  C           1     177.315 186.344 275.313  0.00  0.00     0.002 A 
HETATM    3  C           1     176.839 186.789 276.550  0.00  0.00     0.032 A 
HETATM    4  C           1     175.554 186.496 276.987  0.00  0.00     0.068 A 
HETATM    5  C           1     174.722 185.728 276.143  0.00  0.00    -0.007 A 
HETATM    6  C           1     175.198 185.279 274.898  0.00  0.00     0.014 A 
HETATM    7  N           1     175.142 186.947 278.186  0.00  0.00    -0.241 NA
HETATM    8  C           1     173.886 186.644 278.579  0.00  0.00     0.102 A 
HETATM    9  C           1     172.999 185.900 277.824  0.00  0.00     0.006 A 
HETATM   10  C           1     173.426 185.435 276.587  0.00  0.00     0.025 A 
ENDROOT
BRANCH   9  11
HETATM   11  C           1     171.620 185.603 278.326  0.00  0.00     0.311 C 
BRANCH  11  12
HETATM   12  N           1     170.651 186.048 277.362  0.00  0.00     0.087 N 
HETATM   13  H           1     170.996 185.857 276.421  0.00  0.00     0.316 HD
BRANCH  12  14
HETATM   14  C           1     170.482 187.465 277.532  0.00  0.00     0.270 C 
BRANCH  14  15
HETATM   15  C           1     170.512 188.148 276.172  0.00  0.00     0.030 C 
BRANCH  15  16
HETATM   16  C           1     170.432 187.097 275.073  0.00  0.00     0.003 C 
BRANCH  16  17
HETATM   17  C           1     171.536 187.342 274.053  0.00  0.00     0.030 C 
BRANCH  17  18
HETATM   18  C           1     172.086 188.751 274.228  0.00  0.00     0.271 C 
BRANCH  18  19
HETATM   19  N           1     173.400 188.829 273.649  0.00  0.00     0.080 N 
HETATM   20  C           1     173.422 189.964 272.767  0.00  0.00     0.309 C 
HETATM   21  C           1     174.332 189.084 274.714  0.00  0.00     0.309 C 
ENDBRANCH  18  19
ENDBRANCH  17  18
ENDBRANCH  16  17
ENDBRANCH  15  16
ENDBRANCH  14  15
ENDBRANCH  12  14
ENDBRANCH  11  12
ENDBRANCH   9  11
BRANCH   8  22
HETATM   22  S           1     173.329 187.251 280.196  0.00  0.00    -0.105 SA
BRANCH  22  23
HETATM   23  C           1     174.767 186.589 281.083  0.00  0.00     0.119 C 
BRANCH  23  24
HETATM   24  C           1     174.334 186.062 282.415  0.00  0.00    -0.049 A 
HETATM   25  C           1     175.244 185.386 283.228  0.00  0.00     0.008 A 
HETATM   26  C           1     174.840 184.895 284.469  0.00  0.00     0.001 A 
HETATM   27  C           1     173.526 185.079 284.898  0.00  0.00     0.000 A 
HETATM   28  C           1     172.615 185.754 284.085  0.00  0.00     0.001 A 
HETATM   29  C           1     173.019 186.246 282.844  0.00  0.00     0.008 A 
ENDBRANCH  23  24
ENDBRANCH  22  23
ENDBRANCH   8  22
TORSDOF 11
ENDMDL
MODEL 4
REMARK VINA RESULT:      -6.5      2.193      3.708
REMARK  11 active torsions:
REMARK  status: ('A' for Active; 'I' for Inactive)
REMARK    1  A    between atoms: C_8  and  S_22 
REMARK    2  A    between atoms: C_9  and  C_11 
REMARK    3  A    between atoms: C_11  and  N_12 
REMARK    4  A    between atoms: N_12  and  C_14 
REMARK    5  A    between atoms: C_14  and  C_15 
REMARK    6  A    between atoms: C_15  and  C_16 
REMARK    7  A    between atoms: C_16  and  C_17 
REMARK    8  A    between atoms: C_17  and  C_18 
REMARK    9  A    between atoms: C_18  and  N_19 
REMARK   10  A    between atoms: S_22  and  C_23 
REMARK   11  A    between atoms: C_23  and  C_24 
ROOT
HETATM    1  C           1     177.841 185.902 275.746  0.00  0.00     0.001 A 
HETATM    2  C           1     176.836 185.132 276.322  0.00  0.00     0.002 A 
HETATM    3  C           1     175.650 184.897 275.618  0.00  0.00     0.032 A 
HETATM    4  C           1     175.440 185.412 274.347  0.00  0.00     0.068 A 
HETATM    5  C           1     176.463 186.192 273.767  0.00  0.00    -0.007 A 
HETATM    6  C           1     177.657 186.432 274.471  0.00  0.00     0.014 A 
HETATM    7  N           1     174.282 185.157 273.711  0.00  0.00    -0.241 NA
HETATM    8  C           1     174.111 185.674 272.474  0.00  0.00     0.102 A 
HETATM    9  C           1     175.053 186.449 271.825  0.00  0.00     0.006 A 
HETATM   10  C           1     176.248 186.711 272.483  0.00  0.00     0.025 A 
ENDROOT
BRANCH   9  11
HETATM   11  C           1     174.794 186.989 270.452  0.00  0.00     0.311 C 
BRANCH  11  12
HETATM   12  N           1     174.451 188.382 270.540  0.00  0.00     0.087 N 
HETATM   13  H           1     173.469 188.507 270.292  0.00  0.00     0.316 HD
BRANCH  12  14
HETATM   14  C           1     175.276 189.096 269.604  0.00  0.00     0.270 C 
BRANCH  14  15
HETATM   15  C           1     174.762 188.862 268.191  0.00  0.00     0.030 C 
BRANCH  15  16
HETATM   16  C           1     173.473 189.646 267.981  0.00  0.00     0.003 C 
BRANCH  16  17
HETATM   17  C           1     172.548 188.866 267.056  0.00  0.00     0.030 C 
BRANCH  17  18
HETATM   18  C           1     172.949 187.398 267.057  0.00  0.00     0.271 C 
BRANCH  18  19
HETATM   19  N           1     172.288 186.719 265.974  0.00  0.00     0.080 N 
HETATM   20  C           1     172.131 185.341 266.354  0.00  0.00     0.309 C 
HETATM   21  C           1     170.975 187.288 265.838  0.00  0.00     0.309 C 
ENDBRANCH  18  19
ENDBRANCH  17  18
ENDBRANCH  16  17
ENDBRANCH  15  16
ENDBRANCH  14  15
ENDBRANCH  12  14
ENDBRANCH  11  12
ENDBRANCH   9  11
BRANCH   8  22
HETATM   22  S           1     172.550 185.331 271.615  0.00  0.00    -0.105 SA
BRANCH  22  23
HETATM   23  C           1     172.858 183.546 271.501  0.00  0.00     0.119 C 
BRANCH  23  24
HETATM   24  C           1     173.983 183.292 270.547  0.00  0.00    -0.049 A 
HETATM   25  C           1     173.809 183.528 269.183  0.00  0.00     0.008 A 
HETATM   26  C           1     174.858 183.291 268.295  0.00  0.00     0.001 A 
HETATM   27  C           1     176.080 182.818 268.770  0.00  0.00     0.000 A 
HETATM   28  C           1     176.255 182.582 270.134  0.00  0.00     0.001 A 
HETATM   29  C           1     175.206 182.819 271.022  0.00  0.00     0.008 A 
ENDBRANCH  23  24
ENDBRANCH  22  23
ENDBRANCH   8  22
TORSDOF 11
ENDMDL
MODEL 5
REMARK VINA RESULT:      -6.4      1.737      6.445
REMARK  11 active torsions:
REMARK  status: ('A' for Active; 'I' for Inactive)
REMARK    1  A    between atoms: C_8  and  S_22 
REMARK    2  A    between atoms: C_9  and  C_11 
REMARK    3  A    between atoms: C_11  and  N_12 
REMARK    4  A    between atoms: N_12  and  C_14 
REMARK    5  A    between atoms: C_14  and  C_15 
REMARK    6  A    between atoms: C_15  and  C_16 
REMARK    7  A    between atoms: C_16  and  C_17 
REMARK    8  A    between atoms: C_17  and  C_18 
REMARK    9  A    between atoms: C_18  and  N_19 
REMARK   10  A    between atoms: S_22  and  C_23 
REMARK   11  A    between atoms: C_23  and  C_24 
ROOT
HETATM    1  C           1     177.138 185.050 276.341  0.00  0.00     0.001 A 
HETATM    2  C           1     178.044 185.923 275.748  0.00  0.00     0.002 A 
HETATM    3  C           1     177.696 186.593 274.571  0.00  0.00     0.032 A 
HETATM    4  C           1     176.459 186.415 273.966  0.00  0.00     0.068 A 
HETATM    5  C           1     175.543 185.529 274.573  0.00  0.00    -0.007 A 
HETATM    6  C           1     175.889 184.853 275.756  0.00  0.00     0.014 A 
HETATM    7  N           1     176.172 187.084 272.835  0.00  0.00    -0.241 NA
HETATM    8  C           1     174.959 186.886 272.273  0.00  0.00     0.102 A 
HETATM    9  C           1     173.997 186.041 272.791  0.00  0.00     0.006 A 
HETATM   10  C           1     174.295 185.352 273.960  0.00  0.00     0.025 A 
ENDROOT
BRANCH   9  11
HETATM   11  C           1     172.672 185.873 272.113  0.00  0.00     0.311 C 
BRANCH  11  12
HETATM   12  N           1     172.853 185.170 270.872  0.00  0.00     0.087 N 
HETATM   13  H           1     172.139 185.467 270.206  0.00  0.00     0.316 HD
BRANCH  12  14
HETATM   14  C           1     172.705 183.765 271.138  0.00  0.00     0.270 C 
BRANCH  14  15
HETATM   15  C           1     173.800 182.992 270.416  0.00  0.00     0.030 C 
BRANCH  15  16
HETATM   16  C           1     175.052 182.953 271.283  0.00  0.00     0.003 C 
BRANCH  16  17
HETATM   17  C           1     176.287 183.044 270.397  0.00  0.00     0.030 C 
BRANCH  17  18
HETATM   18  C           1     176.335 184.412 269.731  0.00  0.00     0.271 C 
BRANCH  18  19
HETATM   19  N           1     176.445 184.250 268.306  0.00  0.00     0.080 N 
HETATM   20  C           1     175.469 185.108 267.691  0.00  0.00     0.309 C 
HETATM   21  C           1     177.748 184.714 267.913  0.00  0.00     0.309 C 
ENDBRANCH  18  19
ENDBRANCH  17  18
ENDBRANCH  16  17
ENDBRANCH  15  16
ENDBRANCH  14  15
ENDBRANCH  12  14
ENDBRANCH  11  12
ENDBRANCH   9  11
BRANCH   8  22
HETATM   22  S           1     174.570 187.787 270.746  0.00  0.00    -0.105 SA
BRANCH  22  23
HETATM   23  C           1     173.477 188.975 271.574  0.00  0.00     0.119 C 
BRANCH  23  24
HETATM   24  C           1     174.080 190.343 271.506  0.00  0.00    -0.049 A 
HETATM   25  C           1     175.184 190.579 270.687  0.00  0.00     0.008 A 
HETATM   26  C           1     175.746 191.853 270.623  0.00  0.00     0.001 A 
HETATM   27  C           1     175.206 192.892 271.381  0.00  0.00     0.000 A 
HETATM   28  C           1     174.103 192.657 272.201  0.00  0.00     0.001 A 
HETATM   29  C           1     173.540 191.382 272.264  0.00  0.00     0.008 A 
ENDBRANCH  23  24
ENDBRANCH  22  23
ENDBRANCH   8  22
TORSDOF 11
ENDMDL
MODEL 6
REMARK VINA RESULT:      -6.3      7.999     11.159
REMARK  11 active torsions:
REMARK  status: ('A' for Active; 'I' for Inactive)
REMARK    1  A    between atoms: C_8  and  S_22 
REMARK    2  A    between atoms: C_9  and  C_11 
REMARK    3  A    between atoms: C_11  and  N_12 
REMARK    4  A    between atoms: N_12  and  C_14 
REMARK    5  A    between atoms: C_14  and  C_15 
REMARK    6  A    between atoms: C_15  and  C_16 
REMARK    7  A    between atoms: C_16  and  C_17 
REMARK    8  A    between atoms: C_17  and  C_18 
REMARK    9  A    between atoms: C_18  and  N_19 
REMARK   10  A    between atoms: S_22  and  C_23 
REMARK   11  A    between atoms: C_23  and  C_24 
ROOT
HETATM    1  C           1     171.372 191.453 282.235  0.00  0.00     0.001 A 
HETATM    2  C           1     170.734 191.532 281.001  0.00  0.00     0.002 A 
HETATM    3  C           1     170.781 190.446 280.122  0.00  0.00     0.032 A 
HETATM    4  C           1     171.452 189.273 280.444  0.00  0.00     0.068 A 
HETATM    5  C           1     172.096 189.198 281.697  0.00  0.00    -0.007 A 
HETATM    6  C           1     172.052 190.288 282.584  0.00  0.00     0.014 A 
HETATM    7  N           1     171.467 188.256 279.564  0.00  0.00    -0.241 NA
HETATM    8  C           1     172.129 187.129 279.910  0.00  0.00     0.102 A 
HETATM    9  C           1     172.790 186.961 281.112  0.00  0.00     0.006 A 
HETATM   10  C           1     172.772 188.013 282.019  0.00  0.00     0.025 A 
ENDROOT
BRANCH   9  11
HETATM   11  C           1     173.503 185.682 281.427  0.00  0.00     0.311 C 
BRANCH  11  12
HETATM   12  N           1     174.384 185.886 282.545  0.00  0.00     0.087 N 
HETATM   13  H           1     175.352 185.865 282.222  0.00  0.00     0.316 HD
BRANCH  12  14
HETATM   14  C           1     174.166 184.812 283.475  0.00  0.00     0.270 C 
BRANCH  14  15
HETATM   15  C           1     174.019 185.378 284.881  0.00  0.00     0.030 C 
BRANCH  15  16
HETATM   16  C           1     172.649 186.027 285.027  0.00  0.00     0.003 C 
BRANCH  16  17
HETATM   17  C           1     172.749 187.219 285.970  0.00  0.00     0.030 C 
BRANCH  17  18
HETATM   18  C           1     172.233 186.823 287.346  0.00  0.00     0.271 C 
BRANCH  18  19
HETATM   19  N           1     173.225 187.132 288.340  0.00  0.00     0.080 N 
HETATM   20  C           1     172.536 187.493 289.549  0.00  0.00     0.309 C 
HETATM   21  C           1     173.971 185.932 288.601  0.00  0.00     0.309 C 
ENDBRANCH  18  19
ENDBRANCH  17  18
ENDBRANCH  16  17
ENDBRANCH  15  16
ENDBRANCH  14  15
ENDBRANCH  12  14
ENDBRANCH  11  12
ENDBRANCH   9  11
BRANCH   8  22
HETATM   22  S           1     172.151 185.756 278.724  0.00  0.00    -0.105 SA
BRANCH  22  23
HETATM   23  C           1     172.663 186.799 277.330  0.00  0.00     0.119 C 
BRANCH  23  24
HETATM   24  C           1     173.996 186.342 276.826  0.00  0.00    -0.049 A 
HETATM   25  C           1     174.069 185.437 275.768  0.00  0.00     0.008 A 
HETATM   26  C           1     175.311 185.011 275.298  0.00  0.00     0.001 A 
HETATM   27  C           1     176.481 185.490 275.888  0.00  0.00     0.000 A 
HETATM   28  C           1     176.408 186.395 276.947  0.00  0.00     0.001 A 
HETATM   29  C           1     175.166 186.821 277.416  0.00  0.00     0.008 A 
ENDBRANCH  23  24
ENDBRANCH  22  23
ENDBRANCH   8  22
TORSDOF 11
ENDMDL
MODEL 7
REMARK VINA RESULT:      -6.2      3.736      8.416
REMARK  11 active torsions:
REMARK  status: ('A' for Active; 'I' for Inactive)
REMARK    1  A    between atoms: C_8  and  S_22 
REMARK    2  A    between atoms: C_9  and  C_11 
REMARK    3  A    between atoms: C_11  and  N_12 
REMARK    4  A    between atoms: N_12  and  C_14 
REMARK    5  A    between atoms: C_14  and  C_15 
REMARK    6  A    between atoms: C_15  and  C_16 
REMARK    7  A    between atoms: C_16  and  C_17 
REMARK    8  A    between atoms: C_17  and  C_18 
REMARK    9  A    between atoms: C_18  and  N_19 
REMARK   10  A    between atoms: S_22  and  C_23 
REMARK   11  A    between atoms: C_23  and  C_24 
ROOT
HETATM    1  C           1     174.293 190.185 268.098  0.00  0.00     0.001 A 
HETATM    2  C           1     174.289 190.420 269.469  0.00  0.00     0.002 A 
HETATM    3  C           1     174.532 189.367 270.357  0.00  0.00     0.032 A 
HETATM    4  C           1     174.780 188.076 269.909  0.00  0.00     0.068 A 
HETATM    5  C           1     174.783 187.844 268.517  0.00  0.00    -0.007 A 
HETATM    6  C           1     174.539 188.900 267.621  0.00  0.00     0.014 A 
HETATM    7  N           1     175.009 187.098 270.803  0.00  0.00    -0.241 NA
HETATM    8  C           1     175.247 185.853 270.333  0.00  0.00     0.102 A 
HETATM    9  C           1     175.270 185.527 268.990  0.00  0.00     0.006 A 
HETATM   10  C           1     175.035 186.540 268.069  0.00  0.00     0.025 A 
ENDROOT
BRANCH   9  11
HETATM   11  C           1     175.542 184.124 268.542  0.00  0.00     0.311 C 
BRANCH  11  12
HETATM   12  N           1     174.675 183.793 267.444  0.00  0.00     0.087 N 
HETATM   13  H           1     173.922 183.189 267.776  0.00  0.00     0.316 HD
BRANCH  12  14
HETATM   14  C           1     175.457 183.090 266.464  0.00  0.00     0.270 C 
BRANCH  14  15
HETATM   15  C           1     176.397 184.065 265.768  0.00  0.00     0.030 C 
BRANCH  15  16
HETATM   16  C           1     175.785 184.504 264.444  0.00  0.00     0.003 C 
BRANCH  16  17
HETATM   17  C           1     176.746 184.180 263.308  0.00  0.00     0.030 C 
BRANCH  17  18
HETATM   18  C           1     176.995 182.679 263.265  0.00  0.00     0.271 C 
BRANCH  18  19
HETATM   19  N           1     178.392 182.430 263.030  0.00  0.00     0.080 N 
HETATM   20  C           1     178.704 181.138 263.579  0.00  0.00     0.309 C 
HETATM   21  C           1     178.591 182.362 261.608  0.00  0.00     0.309 C 
ENDBRANCH  18  19
ENDBRANCH  17  18
ENDBRANCH  16  17
ENDBRANCH  15  16
ENDBRANCH  14  15
ENDBRANCH  12  14
ENDBRANCH  11  12
ENDBRANCH   9  11
BRANCH   8  22
HETATM   22  S           1     175.555 184.531 271.537  0.00  0.00    -0.105 SA
BRANCH  22  23
HETATM   23  C           1     174.851 185.460 272.928  0.00  0.00     0.119 C 
BRANCH  23  24
HETATM   24  C           1     175.875 185.590 274.012  0.00  0.00    -0.049 A 
HETATM   25  C           1     175.631 185.042 275.272  0.00  0.00     0.008 A 
HETATM   26  C           1     176.585 185.163 276.281  0.00  0.00     0.001 A 
HETATM   27  C           1     177.782 185.834 276.033  0.00  0.00     0.000 A 
HETATM   28  C           1     178.026 186.382 274.774  0.00  0.00     0.001 A 
HETATM   29  C           1     177.073 186.260 273.764  0.00  0.00     0.008 A 
ENDBRANCH  23  24
ENDBRANCH  22  23
ENDBRANCH   8  22
TORSDOF 11
ENDMDL
MODEL 8
REMARK VINA RESULT:      -6.2      2.274      5.738
REMARK  11 active torsions:
REMARK  status: ('A' for Active; 'I' for Inactive)
REMARK    1  A    between atoms: C_8  and  S_22 
REMARK    2  A    between atoms: C_9  and  C_11 
REMARK    3  A    between atoms: C_11  and  N_12 
REMARK    4  A    between atoms: N_12  and  C_14 
REMARK    5  A    between atoms: C_14  and  C_15 
REMARK    6  A    between atoms: C_15  and  C_16 
REMARK    7  A    between atoms: C_16  and  C_17 
REMARK    8  A    between atoms: C_17  and  C_18 
REMARK    9  A    between atoms: C_18  and  N_19 
REMARK   10  A    between atoms: S_22  and  C_23 
REMARK   11  A    between atoms: C_23  and  C_24 
ROOT
HETATM    1  C           1     176.898 184.911 276.268  0.00  0.00     0.001 A 
HETATM    2  C           1     177.687 186.054 276.193  0.00  0.00     0.002 A 
HETATM    3  C           1     177.239 187.163 275.467  0.00  0.00     0.032 A 
HETATM    4  C           1     176.016 187.161 274.811  0.00  0.00     0.068 A 
HETATM    5  C           1     175.219 185.999 274.890  0.00  0.00    -0.007 A 
HETATM    6  C           1     175.666 184.881 275.618  0.00  0.00     0.014 A 
HETATM    7  N           1     175.629 188.253 274.127  0.00  0.00    -0.241 NA
HETATM    8  C           1     174.433 188.217 273.499  0.00  0.00     0.102 A 
HETATM    9  C           1     173.584 187.126 273.519  0.00  0.00     0.006 A 
HETATM   10  C           1     173.985 186.001 274.226  0.00  0.00     0.025 A 
ENDROOT
BRANCH   9  11
HETATM   11  C           1     172.271 187.159 272.799  0.00  0.00     0.311 C 
BRANCH  11  12
HETATM   12  N           1     172.149 185.993 271.967  0.00  0.00     0.087 N 
HETATM   13  H           1     172.679 185.224 272.379  0.00  0.00     0.316 HD
BRANCH  12  14
HETATM   14  C           1     172.699 186.316 270.678  0.00  0.00     0.270 C 
BRANCH  14  15
HETATM   15  C           1     173.637 185.203 270.232  0.00  0.00     0.030 C 
BRANCH  15  16
HETATM   16  C           1     175.070 185.567 270.598  0.00  0.00     0.003 C 
BRANCH  16  17
HETATM   17  C           1     175.840 184.303 270.957  0.00  0.00     0.030 C 
BRANCH  17  18
HETATM   18  C           1     176.978 184.103 269.966  0.00  0.00     0.271 C 
BRANCH  18  19
HETATM   19  N           1     176.478 184.246 268.625  0.00  0.00     0.080 N 
HETATM   20  C           1     177.576 184.647 267.788  0.00  0.00     0.309 C 
HETATM   21  C           1     176.039 182.951 268.182  0.00  0.00     0.309 C 
ENDBRANCH  18  19
ENDBRANCH  17  18
ENDBRANCH  16  17
ENDBRANCH  15  16
ENDBRANCH  14  15
ENDBRANCH  12  14
ENDBRANCH  11  12
ENDBRANCH   9  11
BRANCH   8  22
HETATM   22  S           1     173.910 189.689 272.575  0.00  0.00    -0.105 SA
BRANCH  22  23
HETATM   23  C           1     175.147 189.464 271.266  0.00  0.00     0.119 C 
BRANCH  23  24
HETATM   24  C           1     174.460 189.374 269.940  0.00  0.00    -0.049 A 
HETATM   25  C           1     175.128 188.830 268.843  0.00  0.00     0.008 A 
HETATM   26  C           1     174.488 188.746 267.607  0.00  0.00     0.001 A 
HETATM   27  C           1     173.181 189.209 267.466  0.00  0.00     0.000 A 
HETATM   28  C           1     172.512 189.754 268.563  0.00  0.00     0.001 A 
HETATM   29  C           1     173.151 189.836 269.799  0.00  0.00     0.008 A 
ENDBRANCH  23  24
ENDBRANCH  22  23
ENDBRANCH   8  22
TORSDOF 11
ENDMDL
MODEL 9
REMARK VINA RESULT:      -6.2      1.259      1.989
REMARK  11 active torsions:
REMARK  status: ('A' for Active; 'I' for Inactive)
REMARK    1  A    between atoms: C_8  and  S_22 
REMARK    2  A    between atoms: C_9  and  C_11 
REMARK    3  A    between atoms: C_11  and  N_12 
REMARK    4  A    between atoms: N_12  and  C_14 
REMARK    5  A    between atoms: C_14  and  C_15 
REMARK    6  A    between atoms: C_15  and  C_16 
REMARK    7  A    between atoms: C_16  and  C_17 
REMARK    8  A    between atoms: C_17  and  C_18 
REMARK    9  A    between atoms: C_18  and  N_19 
REMARK   10  A    between atoms: S_22  and  C_23 
REMARK   11  A    between atoms: C_23  and  C_24 
ROOT
HETATM    1  C           1     177.943 185.865 275.798  0.00  0.00     0.001 A 
HETATM    2  C           1     176.925 185.120 276.384  0.00  0.00     0.002 A 
HETATM    3  C           1     175.729 184.909 275.689  0.00  0.00     0.032 A 
HETATM    4  C           1     175.522 185.425 274.417  0.00  0.00     0.068 A 
HETATM    5  C           1     176.559 186.180 273.827  0.00  0.00    -0.007 A 
HETATM    6  C           1     177.762 186.395 274.522  0.00  0.00     0.014 A 
HETATM    7  N           1     174.354 185.193 273.790  0.00  0.00    -0.241 NA
HETATM    8  C           1     174.186 185.710 272.553  0.00  0.00     0.102 A 
HETATM    9  C           1     175.141 186.461 271.894  0.00  0.00     0.006 A 
HETATM   10  C           1     176.346 186.698 272.543  0.00  0.00     0.025 A 
ENDROOT
BRANCH   9  11
HETATM   11  C           1     174.884 187.002 270.521  0.00  0.00     0.311 C 
BRANCH  11  12
HETATM   12  N           1     175.177 188.409 270.496  0.00  0.00     0.087 N 
HETATM   13  H           1     175.835 188.633 271.243  0.00  0.00     0.316 HD
BRANCH  12  14
HETATM   14  C           1     173.945 189.117 270.715  0.00  0.00     0.270 C 
BRANCH  14  15
HETATM   15  C           1     174.238 190.450 271.391  0.00  0.00     0.030 C 
BRANCH  15  16
HETATM   16  C           1     172.993 190.932 272.125  0.00  0.00     0.003 C 
BRANCH  16  17
HETATM   17  C           1     173.145 190.661 273.616  0.00  0.00     0.030 C 
BRANCH  17  18
HETATM   18  C           1     172.302 189.452 274.001  0.00  0.00     0.271 C 
BRANCH  18  19
HETATM   19  N           1     173.158 188.411 274.503  0.00  0.00     0.080 N 
HETATM   20  C           1     174.428 189.003 274.821  0.00  0.00     0.309 C 
HETATM   21  C           1     172.581 187.924 275.727  0.00  0.00     0.309 C 
ENDBRANCH  18  19
ENDBRANCH  17  18
ENDBRANCH  16  17
ENDBRANCH  15  16
ENDBRANCH  14  15
ENDBRANCH  12  14
ENDBRANCH  11  12
ENDBRANCH   9  11
BRANCH   8  22
HETATM   22  S           1     172.611 185.399 271.706  0.00  0.00    -0.105 SA
BRANCH  22  23
HETATM   23  C           1     172.892 183.611 271.568  0.00  0.00     0.119 C 
BRANCH  23  24
HETATM   24  C           1     174.016 183.354 270.614  0.00  0.00    -0.049 A 
HETATM   25  C           1     175.232 182.858 271.085  0.00  0.00     0.008 A 
HETATM   26  C           1     176.279 182.618 270.195  0.00  0.00     0.001 A 
HETATM   27  C           1     176.111 182.875 268.835  0.00  0.00     0.000 A 
HETATM   28  C           1     174.895 183.371 268.364  0.00  0.00     0.001 A 
HETATM   29  C           1     173.848 183.611 269.253  0.00  0.00     0.008 A 
ENDBRANCH  23  24
ENDBRANCH  22  23
ENDBRANCH   8  22
TORSDOF 11
ENDMDL
