MODEL 1
REMARK VINA RESULT:      -7.3      0.000      0.000
REMARK  8 active torsions:
REMARK  status: ('A' for Active; 'I' for Inactive)
REMARK    1  A    between atoms: C_8  and  S_16 
REMARK    2  A    between atoms: C_9  and  C_11 
REMARK    3  A    between atoms: C_11  and  N_12 
REMARK    4  A    between atoms: N_12  and  C_13 
REMARK    5  A    between atoms: C_13  and  C_14 
REMARK    6  A    between atoms: C_14  and  C_15 
REMARK    7  A    between atoms: S_16  and  C_17 
REMARK    8  A    between atoms: C_17  and  C_18 
ROOT
HETATM    1  C           1     176.578 185.666 274.463  0.00  0.00     0.001 A 
HETATM    2  C           1     177.361 186.448 275.304  0.00  0.00     0.002 A 
HETATM    3  C           1     176.851 186.871 276.536  0.00  0.00     0.032 A 
HETATM    4  C           1     175.571 186.531 276.954  0.00  0.00     0.068 A 
HETATM    5  C           1     174.781 185.736 276.096  0.00  0.00    -0.007 A 
HETATM    6  C           1     175.289 185.309 274.856  0.00  0.00     0.014 A 
HETATM    7  N           1     175.127 186.962 278.148  0.00  0.00    -0.241 NA
HETATM    8  C           1     173.876 186.612 278.523  0.00  0.00     0.102 A 
HETATM    9  C           1     173.028 185.839 277.753  0.00  0.00     0.006 A 
HETATM   10  C           1     173.490 185.395 276.520  0.00  0.00     0.025 A 
ENDROOT
BRANCH   9  11
HETATM   11  C           1     171.653 185.490 278.233  0.00  0.00     0.311 C 
BRANCH  11  12
HETATM   12  N           1     170.679 185.975 277.292  0.00  0.00     0.088 N 
HETATM   13  H           1     171.097 186.022 276.363  0.00  0.00     0.316 HD
BRANCH  12  14
HETATM   14  C           1     170.287 187.294 277.709  0.00  0.00     0.277 C 
BRANCH  14  15
HETATM   15  C           1     169.870 188.109 276.493  0.00  0.00     0.110 C 
BRANCH  15  16
HETATM   16  C           1     170.896 187.957 275.414  0.00  0.00     0.128 A 
HETATM   17  N           1     170.576 187.168 274.375  0.00  0.00    -0.238 NA
HETATM   18  C           1     171.517 187.051 273.421  0.00  0.00     0.034 A 
HETATM   19  C           1     171.221 186.186 272.236  0.00  0.00     0.070 C 
HETATM   20  C           1     172.739 187.683 273.476  0.00  0.00     0.053 A 
HETATM   21  C           1     172.955 188.464 274.589  0.00  0.00     0.034 A 
HETATM   22  C           1     174.265 189.179 274.708  0.00  0.00     0.070 C 
HETATM   23  N           1     172.052 188.621 275.574  0.00  0.00    -0.238 NA
ENDBRANCH  15  16
ENDBRANCH  14  15
ENDBRANCH  12  14
ENDBRANCH  11  12
ENDBRANCH   9  11
BRANCH   8  24
HETATM   24  S           1     173.275 187.193 280.133  0.00  0.00    -0.105 SA
BRANCH  24  25
HETATM   25  C           1     174.736 186.604 281.034  0.00  0.00     0.119 C 
BRANCH  25  26
HETATM   26  C           1     174.319 186.070 282.368  0.00  0.00    -0.049 A 
HETATM   27  C           1     175.239 185.390 283.167  0.00  0.00     0.008 A 
HETATM   28  C           1     174.850 184.891 284.409  0.00  0.00     0.001 A 
HETATM   29  C           1     173.541 185.072 284.855  0.00  0.00     0.000 A 
HETATM   30  C           1     172.620 185.752 284.057  0.00  0.00     0.001 A 
HETATM   31  C           1     173.009 186.251 282.814  0.00  0.00     0.008 A 
ENDBRANCH  25  26
ENDBRANCH  24  25
ENDBRANCH   8  24
TORSDOF 8
ENDMDL
MODEL 2
REMARK VINA RESULT:      -7.1      5.046      8.833
REMARK  8 active torsions:
REMARK  status: ('A' for Active; 'I' for Inactive)
REMARK    1  A    between atoms: C_8  and  S_16 
REMARK    2  A    between atoms: C_9  and  C_11 
REMARK    3  A    between atoms: C_11  and  N_12 
REMARK    4  A    between atoms: N_12  and  C_13 
REMARK    5  A    between atoms: C_13  and  C_14 
REMARK    6  A    between atoms: C_14  and  C_15 
REMARK    7  A    between atoms: S_16  and  C_17 
REMARK    8  A    between atoms: C_17  and  C_18 
ROOT
HETATM    1  C           1     178.004 185.863 276.031  0.00  0.00     0.001 A 
HETATM    2  C           1     176.985 185.092 276.577  0.00  0.00     0.002 A 
HETATM    3  C           1     175.794 184.909 275.866  0.00  0.00     0.032 A 
HETATM    4  C           1     175.592 185.480 274.617  0.00  0.00     0.068 A 
HETATM    5  C           1     176.631 186.261 274.068  0.00  0.00    -0.007 A 
HETATM    6  C           1     177.831 186.448 274.778  0.00  0.00     0.014 A 
HETATM    7  N           1     174.429 185.273 273.973  0.00  0.00    -0.241 NA
HETATM    8  C           1     174.267 185.844 272.759  0.00  0.00     0.102 A 
HETATM    9  C           1     175.224 186.626 272.140  0.00  0.00     0.006 A 
HETATM   10  C           1     176.425 186.836 272.806  0.00  0.00     0.025 A 
ENDROOT
BRANCH   9  11
HETATM   11  C           1     174.975 187.227 270.791  0.00  0.00     0.311 C 
BRANCH  11  12
HETATM   12  N           1     174.651 188.620 270.939  0.00  0.00     0.088 N 
HETATM   13  H           1     173.637 188.736 270.932  0.00  0.00     0.316 HD
BRANCH  12  14
HETATM   14  C           1     175.222 189.323 269.822  0.00  0.00     0.277 C 
BRANCH  14  15
HETATM   15  C           1     175.218 188.420 268.596  0.00  0.00     0.110 C 
BRANCH  15  16
HETATM   16  C           1     173.911 188.556 267.879  0.00  0.00     0.128 A 
HETATM   17  N           1     173.298 189.749 267.953  0.00  0.00    -0.238 NA
HETATM   18  C           1     172.125 189.841 267.298  0.00  0.00     0.034 A 
HETATM   19  C           1     171.392 191.145 267.342  0.00  0.00     0.070 C 
HETATM   20  C           1     171.563 188.801 266.593  0.00  0.00     0.053 A 
HETATM   21  C           1     172.283 187.628 266.589  0.00  0.00     0.034 A 
HETATM   22  C           1     171.726 186.459 265.838  0.00  0.00     0.070 C 
HETATM   23  N           1     173.460 187.475 267.223  0.00  0.00    -0.238 NA
ENDBRANCH  15  16
ENDBRANCH  14  15
ENDBRANCH  12  14
ENDBRANCH  11  12
ENDBRANCH   9  11
BRANCH   8  24
HETATM   24  S           1     172.698 185.568 271.889  0.00  0.00    -0.105 SA
BRANCH  24  25
HETATM   25  C           1     172.993 183.792 271.657  0.00  0.00     0.119 C 
BRANCH  25  26
HETATM   26  C           1     174.114 183.594 270.686  0.00  0.00    -0.049 A 
HETATM   27  C           1     175.294 182.975 271.099  0.00  0.00     0.008 A 
HETATM   28  C           1     176.339 182.791 270.193  0.00  0.00     0.001 A 
HETATM   29  C           1     176.204 183.226 268.875  0.00  0.00     0.000 A 
HETATM   30  C           1     175.024 183.845 268.462  0.00  0.00     0.001 A 
HETATM   31  C           1     173.979 184.029 269.367  0.00  0.00     0.008 A 
ENDBRANCH  25  26
ENDBRANCH  24  25
ENDBRANCH   8  24
TORSDOF 8
ENDMDL
MODEL 3
REMARK VINA RESULT:      -7.1      5.085      8.419
REMARK  8 active torsions:
REMARK  status: ('A' for Active; 'I' for Inactive)
REMARK    1  A    between atoms: C_8  and  S_16 
REMARK    2  A    between atoms: C_9  and  C_11 
REMARK    3  A    between atoms: C_11  and  N_12 
REMARK    4  A    between atoms: N_12  and  C_13 
REMARK    5  A    between atoms: C_13  and  C_14 
REMARK    6  A    between atoms: C_14  and  C_15 
REMARK    7  A    between atoms: S_16  and  C_17 
REMARK    8  A    between atoms: C_17  and  C_18 
ROOT
HETATM    1  C           1     178.040 185.744 276.162  0.00  0.00     0.001 A 
HETATM    2  C           1     177.073 184.804 276.497  0.00  0.00     0.002 A 
HETATM    3  C           1     175.905 184.704 275.733  0.00  0.00     0.032 A 
HETATM    4  C           1     175.677 185.523 274.635  0.00  0.00     0.068 A 
HETATM    5  C           1     176.663 186.476 274.300  0.00  0.00    -0.007 A 
HETATM    6  C           1     177.838 186.581 275.066  0.00  0.00     0.014 A 
HETATM    7  N           1     174.538 185.388 273.932  0.00  0.00    -0.241 NA
HETATM    8  C           1     174.349 186.202 272.870  0.00  0.00     0.102 A 
HETATM    9  C           1     175.254 187.164 272.464  0.00  0.00     0.006 A 
HETATM   10  C           1     176.429 187.302 273.192  0.00  0.00     0.025 A 
ENDROOT
BRANCH   9  11
HETATM   11  C           1     174.977 188.032 271.275  0.00  0.00     0.311 C 
BRANCH  11  12
HETATM   12  N           1     175.396 189.379 271.557  0.00  0.00     0.088 N 
HETATM   13  H           1     174.662 189.862 272.076  0.00  0.00     0.316 HD
BRANCH  12  14
HETATM   14  C           1     175.609 190.043 270.299  0.00  0.00     0.277 C 
BRANCH  14  15
HETATM   15  C           1     174.269 190.468 269.715  0.00  0.00     0.110 C 
BRANCH  15  16
HETATM   16  C           1     173.747 191.650 270.471  0.00  0.00     0.128 A 
HETATM   17  N           1     172.538 192.115 270.115  0.00  0.00    -0.238 NA
HETATM   18  C           1     172.095 193.177 270.812  0.00  0.00     0.034 A 
HETATM   19  C           1     170.754 193.743 270.464  0.00  0.00     0.070 C 
HETATM   20  C           1     172.809 193.773 271.828  0.00  0.00     0.053 A 
HETATM   21  C           1     174.035 193.210 272.102  0.00  0.00     0.034 A 
HETATM   22  C           1     174.860 193.811 273.196  0.00  0.00     0.070 C 
HETATM   23  N           1     174.530 192.147 271.441  0.00  0.00    -0.238 NA
ENDBRANCH  15  16
ENDBRANCH  14  15
ENDBRANCH  12  14
ENDBRANCH  11  12
ENDBRANCH   9  11
BRANCH   8  24
HETATM   24  S           1     172.813 186.021 271.920  0.00  0.00    -0.105 SA
BRANCH  24  25
HETATM   25  C           1     173.025 184.235 271.676  0.00  0.00     0.119 C 
BRANCH  25  26
HETATM   26  C           1     174.197 183.988 270.779  0.00  0.00    -0.049 A 
HETATM   27  C           1     174.312 184.680 269.573  0.00  0.00     0.008 A 
HETATM   28  C           1     175.403 184.449 268.737  0.00  0.00     0.001 A 
HETATM   29  C           1     176.381 183.526 269.106  0.00  0.00     0.000 A 
HETATM   30  C           1     176.267 182.833 270.312  0.00  0.00     0.001 A 
HETATM   31  C           1     175.175 183.064 271.148  0.00  0.00     0.008 A 
ENDBRANCH  25  26
ENDBRANCH  24  25
ENDBRANCH   8  24
TORSDOF 8
ENDMDL
MODEL 4
REMARK VINA RESULT:      -7.1      3.447      9.076
REMARK  8 active torsions:
REMARK  status: ('A' for Active; 'I' for Inactive)
REMARK    1  A    between atoms: C_8  and  S_16 
REMARK    2  A    between atoms: C_9  and  C_11 
REMARK    3  A    between atoms: C_11  and  N_12 
REMARK    4  A    between atoms: N_12  and  C_13 
REMARK    5  A    between atoms: C_13  and  C_14 
REMARK    6  A    between atoms: C_14  and  C_15 
REMARK    7  A    between atoms: S_16  and  C_17 
REMARK    8  A    between atoms: C_17  and  C_18 
ROOT
HETATM    1  C           1     171.460 191.178 282.310  0.00  0.00     0.001 A 
HETATM    2  C           1     170.723 191.256 281.134  0.00  0.00     0.002 A 
HETATM    3  C           1     170.743 190.190 280.228  0.00  0.00     0.032 A 
HETATM    4  C           1     171.483 189.040 280.467  0.00  0.00     0.068 A 
HETATM    5  C           1     172.229 188.966 281.663  0.00  0.00    -0.007 A 
HETATM    6  C           1     172.213 190.036 282.577  0.00  0.00     0.014 A 
HETATM    7  N           1     171.469 188.042 279.565  0.00  0.00    -0.241 NA
HETATM    8  C           1     172.202 186.938 279.830  0.00  0.00     0.102 A 
HETATM    9  C           1     172.963 186.773 280.971  0.00  0.00     0.006 A 
HETATM   10  C           1     172.976 187.805 281.901  0.00  0.00     0.025 A 
ENDROOT
BRANCH   9  11
HETATM   11  C           1     173.751 185.520 281.199  0.00  0.00     0.311 C 
BRANCH  11  12
HETATM   12  N           1     173.574 185.082 282.557  0.00  0.00     0.088 N 
HETATM   13  H           1     172.835 185.630 282.998  0.00  0.00     0.316 HD
BRANCH  12  14
HETATM   14  C           1     174.813 185.301 283.253  0.00  0.00     0.277 C 
BRANCH  14  15
HETATM   15  C           1     174.778 184.580 284.594  0.00  0.00     0.110 C 
BRANCH  15  16
HETATM   16  C           1     174.101 185.447 285.609  0.00  0.00     0.128 A 
HETATM   17  N           1     174.502 185.319 286.884  0.00  0.00    -0.238 NA
HETATM   18  C           1     173.875 186.111 287.774  0.00  0.00     0.034 A 
HETATM   19  C           1     174.277 186.016 289.212  0.00  0.00     0.070 C 
HETATM   20  C           1     172.884 187.003 287.433  0.00  0.00     0.053 A 
HETATM   21  C           1     172.557 187.046 286.097  0.00  0.00     0.034 A 
HETATM   22  C           1     171.487 187.997 285.661  0.00  0.00     0.070 C 
HETATM   23  N           1     173.148 186.281 285.161  0.00  0.00    -0.238 NA
ENDBRANCH  15  16
ENDBRANCH  14  15
ENDBRANCH  12  14
ENDBRANCH  11  12
ENDBRANCH   9  11
BRANCH   8  24
HETATM   24  S           1     172.184 185.591 278.614  0.00  0.00    -0.105 SA
BRANCH  24  25
HETATM   25  C           1     172.701 186.655 277.238  0.00  0.00     0.119 C 
BRANCH  25  26
HETATM   26  C           1     174.074 186.262 276.791  0.00  0.00    -0.049 A 
HETATM   27  C           1     175.195 186.818 277.408  0.00  0.00     0.008 A 
HETATM   28  C           1     176.474 186.453 276.991  0.00  0.00     0.001 A 
HETATM   29  C           1     176.634 185.531 275.957  0.00  0.00     0.000 A 
HETATM   30  C           1     175.513 184.974 275.339  0.00  0.00     0.001 A 
HETATM   31  C           1     174.234 185.340 275.756  0.00  0.00     0.008 A 
ENDBRANCH  25  26
ENDBRANCH  24  25
ENDBRANCH   8  24
TORSDOF 8
ENDMDL
MODEL 5
REMARK VINA RESULT:      -6.9      2.607      5.360
REMARK  8 active torsions:
REMARK  status: ('A' for Active; 'I' for Inactive)
REMARK    1  A    between atoms: C_8  and  S_16 
REMARK    2  A    between atoms: C_9  and  C_11 
REMARK    3  A    between atoms: C_11  and  N_12 
REMARK    4  A    between atoms: N_12  and  C_13 
REMARK    5  A    between atoms: C_13  and  C_14 
REMARK    6  A    between atoms: C_14  and  C_15 
REMARK    7  A    between atoms: S_16  and  C_17 
REMARK    8  A    between atoms: C_17  and  C_18 
ROOT
HETATM    1  C           1     170.004 190.701 281.690  0.00  0.00     0.001 A 
HETATM    2  C           1     170.492 190.682 282.991  0.00  0.00     0.002 A 
HETATM    3  C           1     171.580 189.864 283.314  0.00  0.00     0.032 A 
HETATM    4  C           1     172.199 189.061 282.366  0.00  0.00     0.068 A 
HETATM    5  C           1     171.700 189.085 281.046  0.00  0.00    -0.007 A 
HETATM    6  C           1     170.605 189.906 280.716  0.00  0.00     0.014 A 
HETATM    7  N           1     173.243 188.293 282.727  0.00  0.00    -0.241 NA
HETATM    8  C           1     173.820 187.523 281.778  0.00  0.00     0.102 A 
HETATM    9  C           1     173.404 187.479 280.461  0.00  0.00     0.006 A 
HETATM   10  C           1     172.326 188.273 280.091  0.00  0.00     0.025 A 
ENDROOT
BRANCH   9  11
HETATM   11  C           1     174.093 186.601 279.462  0.00  0.00     0.311 C 
BRANCH  11  12
HETATM   12  N           1     173.533 186.826 278.157  0.00  0.00     0.088 N 
HETATM   13  H           1     172.658 187.344 278.247  0.00  0.00     0.316 HD
BRANCH  12  14
HETATM   14  C           1     173.271 185.543 277.566  0.00  0.00     0.277 C 
BRANCH  14  15
HETATM   15  C           1     173.219 185.682 276.050  0.00  0.00     0.110 C 
BRANCH  15  16
HETATM   16  C           1     174.611 185.736 275.505  0.00  0.00     0.128 A 
HETATM   17  N           1     174.740 185.860 274.174  0.00  0.00    -0.238 NA
HETATM   18  C           1     176.004 185.907 273.713  0.00  0.00     0.034 A 
HETATM   19  C           1     176.215 186.045 272.238  0.00  0.00     0.070 C 
HETATM   20  C           1     177.113 185.834 274.526  0.00  0.00     0.053 A 
HETATM   21  C           1     176.857 185.708 275.872  0.00  0.00     0.034 A 
HETATM   22  C           1     178.021 185.624 276.809  0.00  0.00     0.070 C 
HETATM   23  N           1     175.617 185.657 276.392  0.00  0.00    -0.238 NA
ENDBRANCH  15  16
ENDBRANCH  14  15
ENDBRANCH  12  14
ENDBRANCH  11  12
ENDBRANCH   9  11
BRANCH   8  24
HETATM   24  S           1     175.228 186.486 282.262  0.00  0.00    -0.105 SA
BRANCH  24  25
HETATM   25  C           1     174.203 185.025 282.591  0.00  0.00     0.119 C 
BRANCH  25  26
HETATM   26  C           1     173.870 184.965 284.049  0.00  0.00    -0.049 A 
HETATM   27  C           1     172.571 185.234 284.480  0.00  0.00     0.008 A 
HETATM   28  C           1     172.262 185.178 285.839  0.00  0.00     0.001 A 
HETATM   29  C           1     173.251 184.855 286.767  0.00  0.00     0.000 A 
HETATM   30  C           1     174.551 184.586 286.336  0.00  0.00     0.001 A 
HETATM   31  C           1     174.860 184.642 284.978  0.00  0.00     0.008 A 
ENDBRANCH  25  26
ENDBRANCH  24  25
ENDBRANCH   8  24
TORSDOF 8
ENDMDL
MODEL 6
REMARK VINA RESULT:      -6.8      4.869      8.024
REMARK  8 active torsions:
REMARK  status: ('A' for Active; 'I' for Inactive)
REMARK    1  A    between atoms: C_8  and  S_16 
REMARK    2  A    between atoms: C_9  and  C_11 
REMARK    3  A    between atoms: C_11  and  N_12 
REMARK    4  A    between atoms: N_12  and  C_13 
REMARK    5  A    between atoms: C_13  and  C_14 
REMARK    6  A    between atoms: C_14  and  C_15 
REMARK    7  A    between atoms: S_16  and  C_17 
REMARK    8  A    between atoms: C_17  and  C_18 
ROOT
HETATM    1  C           1     176.180 185.416 274.922  0.00  0.00     0.001 A 
HETATM    2  C           1     174.936 185.532 275.532  0.00  0.00     0.002 A 
HETATM    3  C           1     174.012 186.468 275.056  0.00  0.00     0.032 A 
HETATM    4  C           1     174.298 187.296 273.980  0.00  0.00     0.068 A 
HETATM    5  C           1     175.562 187.174 273.364  0.00  0.00    -0.007 A 
HETATM    6  C           1     176.495 186.235 273.839  0.00  0.00     0.014 A 
HETATM    7  N           1     173.374 188.180 273.559  0.00  0.00    -0.241 NA
HETATM    8  C           1     173.687 188.971 272.509  0.00  0.00     0.102 A 
HETATM    9  C           1     174.897 188.926 271.842  0.00  0.00     0.006 A 
HETATM   10  C           1     175.848 188.012 272.278  0.00  0.00     0.025 A 
ENDROOT
BRANCH   9  11
HETATM   11  C           1     175.174 189.834 270.683  0.00  0.00     0.311 C 
BRANCH  11  12
HETATM   12  N           1     175.671 189.062 269.577  0.00  0.00     0.088 N 
HETATM   13  H           1     176.587 189.417 269.298  0.00  0.00     0.316 HD
BRANCH  12  14
HETATM   14  C           1     174.747 189.215 268.486  0.00  0.00     0.277 C 
BRANCH  14  15
HETATM   15  C           1     174.484 187.857 267.848  0.00  0.00     0.110 C 
BRANCH  15  16
HETATM   16  C           1     174.418 186.809 268.914  0.00  0.00     0.128 A 
HETATM   17  N           1     173.275 186.723 269.615  0.00  0.00    -0.238 NA
HETATM   18  C           1     173.246 185.771 270.566  0.00  0.00     0.034 A 
HETATM   19  C           1     172.000 185.624 271.382  0.00  0.00     0.070 C 
HETATM   20  C           1     174.300 184.926 270.830  0.00  0.00     0.053 A 
HETATM   21  C           1     175.418 185.109 270.048  0.00  0.00     0.034 A 
HETATM   22  C           1     176.599 184.220 270.285  0.00  0.00     0.070 C 
HETATM   23  N           1     175.507 186.041 269.083  0.00  0.00    -0.238 NA
ENDBRANCH  15  16
ENDBRANCH  14  15
ENDBRANCH  12  14
ENDBRANCH  11  12
ENDBRANCH   9  11
BRANCH   8  24
HETATM   24  S           1     172.443 190.164 271.940  0.00  0.00    -0.105 SA
BRANCH  24  25
HETATM   25  C           1     172.266 190.948 273.567  0.00  0.00     0.119 C 
BRANCH  25  26
HETATM   26  C           1     173.297 192.022 273.719  0.00  0.00    -0.049 A 
HETATM   27  C           1     173.811 192.662 272.592  0.00  0.00     0.008 A 
HETATM   28  C           1     174.772 193.662 272.735  0.00  0.00     0.001 A 
HETATM   29  C           1     175.221 194.022 274.005  0.00  0.00     0.000 A 
HETATM   30  C           1     174.708 193.381 275.133  0.00  0.00     0.001 A 
HETATM   31  C           1     173.747 192.382 274.990  0.00  0.00     0.008 A 
ENDBRANCH  25  26
ENDBRANCH  24  25
ENDBRANCH   8  24
TORSDOF 8
ENDMDL
MODEL 7
REMARK VINA RESULT:      -6.8      4.421      9.438
REMARK  8 active torsions:
REMARK  status: ('A' for Active; 'I' for Inactive)
REMARK    1  A    between atoms: C_8  and  S_16 
REMARK    2  A    between atoms: C_9  and  C_11 
REMARK    3  A    between atoms: C_11  and  N_12 
REMARK    4  A    between atoms: N_12  and  C_13 
REMARK    5  A    between atoms: C_13  and  C_14 
REMARK    6  A    between atoms: C_14  and  C_15 
REMARK    7  A    between atoms: S_16  and  C_17 
REMARK    8  A    between atoms: C_17  and  C_18 
ROOT
HETATM    1  C           1     175.292 182.675 271.002  0.00  0.00     0.001 A 
HETATM    2  C           1     176.387 183.163 270.298  0.00  0.00     0.002 A 
HETATM    3  C           1     176.469 184.527 269.997  0.00  0.00     0.032 A 
HETATM    4  C           1     175.481 185.422 270.384  0.00  0.00     0.068 A 
HETATM    5  C           1     174.372 184.921 271.099  0.00  0.00    -0.007 A 
HETATM    6  C           1     174.285 183.550 271.404  0.00  0.00     0.014 A 
HETATM    7  N           1     175.607 186.725 270.072  0.00  0.00    -0.241 NA
HETATM    8  C           1     174.626 187.568 270.464  0.00  0.00     0.102 A 
HETATM    9  C           1     173.503 187.172 271.167  0.00  0.00     0.006 A 
HETATM   10  C           1     173.376 185.827 271.489  0.00  0.00     0.025 A 
ENDROOT
BRANCH   9  11
HETATM   11  C           1     172.456 188.163 271.570  0.00  0.00     0.311 C 
BRANCH  11  12
HETATM   12  N           1     172.434 188.283 273.003  0.00  0.00     0.088 N 
HETATM   13  H           1     171.510 188.025 273.352  0.00  0.00     0.316 HD
BRANCH  12  14
HETATM   14  C           1     172.703 189.656 273.332  0.00  0.00     0.277 C 
BRANCH  14  15
HETATM   15  C           1     173.803 189.722 274.382  0.00  0.00     0.110 C 
BRANCH  15  16
HETATM   16  C           1     174.299 188.340 274.673  0.00  0.00     0.128 A 
HETATM   17  N           1     173.627 187.633 275.597  0.00  0.00    -0.238 NA
HETATM   18  C           1     174.096 186.395 275.837  0.00  0.00     0.034 A 
HETATM   19  C           1     173.391 185.556 276.856  0.00  0.00     0.070 C 
HETATM   20  C           1     175.190 185.858 275.196  0.00  0.00     0.053 A 
HETATM   21  C           1     175.797 186.676 274.270  0.00  0.00     0.034 A 
HETATM   22  C           1     176.992 186.150 273.539  0.00  0.00     0.070 C 
HETATM   23  N           1     175.374 187.921 273.987  0.00  0.00    -0.238 NA
ENDBRANCH  15  16
ENDBRANCH  14  15
ENDBRANCH  12  14
ENDBRANCH  11  12
ENDBRANCH   9  11
BRANCH   8  24
HETATM   24  S           1     174.793 189.325 270.043  0.00  0.00    -0.105 SA
BRANCH  24  25
HETATM   25  C           1     174.942 189.015 268.261  0.00  0.00     0.119 C 
BRANCH  25  26
HETATM   26  C           1     173.580 188.988 267.643  0.00  0.00    -0.049 A 
HETATM   27  C           1     173.098 187.812 267.067  0.00  0.00     0.008 A 
HETATM   28  C           1     171.829 187.787 266.490  0.00  0.00     0.001 A 
HETATM   29  C           1     171.041 188.937 266.488  0.00  0.00     0.000 A 
HETATM   30  C           1     171.522 190.114 267.064  0.00  0.00     0.001 A 
HETATM   31  C           1     172.791 190.139 267.641  0.00  0.00     0.008 A 
ENDBRANCH  25  26
ENDBRANCH  24  25
ENDBRANCH   8  24
TORSDOF 8
ENDMDL
MODEL 8
REMARK VINA RESULT:      -6.8      4.484      8.495
REMARK  8 active torsions:
REMARK  status: ('A' for Active; 'I' for Inactive)
REMARK    1  A    between atoms: C_8  and  S_16 
REMARK    2  A    between atoms: C_9  and  C_11 
REMARK    3  A    between atoms: C_11  and  N_12 
REMARK    4  A    between atoms: N_12  and  C_13 
REMARK    5  A    between atoms: C_13  and  C_14 
REMARK    6  A    between atoms: C_14  and  C_15 
REMARK    7  A    between atoms: S_16  and  C_17 
REMARK    8  A    between atoms: C_17  and  C_18 
ROOT
HETATM    1  C           1     176.778 185.344 276.270  0.00  0.00     0.001 A 
HETATM    2  C           1     177.788 186.003 275.578  0.00  0.00     0.002 A 
HETATM    3  C           1     177.619 186.308 274.224  0.00  0.00     0.032 A 
HETATM    4  C           1     176.461 185.970 273.537  0.00  0.00     0.068 A 
HETATM    5  C           1     175.439 185.301 274.244  0.00  0.00    -0.007 A 
HETATM    6  C           1     175.605 184.992 275.607  0.00  0.00     0.014 A 
HETATM    7  N           1     176.346 186.286 272.234  0.00  0.00    -0.241 NA
HETATM    8  C           1     175.205 185.941 271.597  0.00  0.00     0.102 A 
HETATM    9  C           1     174.150 185.285 272.203  0.00  0.00     0.006 A 
HETATM   10  C           1     174.271 184.961 273.548  0.00  0.00     0.025 A 
ENDROOT
BRANCH   9  11
HETATM   11  C           1     172.914 184.935 271.433  0.00  0.00     0.311 C 
BRANCH  11  12
HETATM   12  N           1     171.801 185.688 271.945  0.00  0.00     0.088 N 
HETATM   13  H           1     171.010 185.062 272.100  0.00  0.00     0.316 HD
BRANCH  12  14
HETATM   14  C           1     171.447 186.672 270.959  0.00  0.00     0.277 C 
BRANCH  14  15
HETATM   15  C           1     171.154 187.998 271.646  0.00  0.00     0.110 C 
BRANCH  15  16
HETATM   16  C           1     171.655 187.952 273.056  0.00  0.00     0.128 A 
HETATM   17  N           1     172.903 188.399 273.273  0.00  0.00    -0.238 NA
HETATM   18  C           1     173.326 188.345 274.550  0.00  0.00     0.034 A 
HETATM   19  C           1     174.708 188.829 274.858  0.00  0.00     0.070 C 
HETATM   20  C           1     172.556 187.869 275.587  0.00  0.00     0.053 A 
HETATM   21  C           1     171.295 187.439 275.243  0.00  0.00     0.034 A 
HETATM   22  C           1     170.407 186.911 276.326  0.00  0.00     0.070 C 
HETATM   23  N           1     170.816 187.469 273.986  0.00  0.00    -0.238 NA
ENDBRANCH  15  16
ENDBRANCH  14  15
ENDBRANCH  12  14
ENDBRANCH  11  12
ENDBRANCH   9  11
BRANCH   8  24
HETATM   24  S           1     175.049 186.366 269.839  0.00  0.00    -0.105 SA
BRANCH  24  25
HETATM   25  C           1     174.867 188.144 270.154  0.00  0.00     0.119 C 
BRANCH  25  26
HETATM   26  C           1     173.930 188.737 269.149  0.00  0.00    -0.049 A 
HETATM   27  C           1     173.371 189.995 269.372  0.00  0.00     0.008 A 
HETATM   28  C           1     172.498 190.547 268.436  0.00  0.00     0.001 A 
HETATM   29  C           1     172.182 189.841 267.276  0.00  0.00     0.000 A 
HETATM   30  C           1     172.741 188.582 267.052  0.00  0.00     0.001 A 
HETATM   31  C           1     173.614 188.030 267.988  0.00  0.00     0.008 A 
ENDBRANCH  25  26
ENDBRANCH  24  25
ENDBRANCH   8  24
TORSDOF 8
ENDMDL
MODEL 9
REMARK VINA RESULT:      -6.7      4.825      7.203
REMARK  8 active torsions:
REMARK  status: ('A' for Active; 'I' for Inactive)
REMARK    1  A    between atoms: C_8  and  S_16 
REMARK    2  A    between atoms: C_9  and  C_11 
REMARK    3  A    between atoms: C_11  and  N_12 
REMARK    4  A    between atoms: N_12  and  C_13 
REMARK    5  A    between atoms: C_13  and  C_14 
REMARK    6  A    between atoms: C_14  and  C_15 
REMARK    7  A    between atoms: S_16  and  C_17 
REMARK    8  A    between atoms: C_17  and  C_18 
ROOT
HETATM    1  C           1     176.313 183.363 269.415  0.00  0.00     0.001 A 
HETATM    2  C           1     175.693 182.502 270.312  0.00  0.00     0.002 A 
HETATM    3  C           1     174.958 183.023 271.383  0.00  0.00     0.032 A 
HETATM    4  C           1     174.826 184.390 271.582  0.00  0.00     0.068 A 
HETATM    5  C           1     175.458 185.260 270.667  0.00  0.00    -0.007 A 
HETATM    6  C           1     176.198 184.740 269.590  0.00  0.00     0.014 A 
HETATM    7  N           1     174.108 184.842 272.626  0.00  0.00    -0.241 NA
HETATM    8  C           1     174.000 186.179 272.790  0.00  0.00     0.102 A 
HETATM    9  C           1     174.582 187.109 271.949  0.00  0.00     0.006 A 
HETATM   10  C           1     175.322 186.640 270.871  0.00  0.00     0.025 A 
ENDROOT
BRANCH   9  11
HETATM   11  C           1     174.419 188.578 272.192  0.00  0.00     0.311 C 
BRANCH  11  12
HETATM   12  N           1     173.776 189.183 271.058  0.00  0.00     0.088 N 
HETATM   13  H           1     173.804 188.539 270.266  0.00  0.00     0.316 HD
BRANCH  12  14
HETATM   14  C           1     174.503 190.379 270.729  0.00  0.00     0.277 C 
BRANCH  14  15
HETATM   15  C           1     175.156 190.218 269.363  0.00  0.00     0.110 C 
BRANCH  15  16
HETATM   16  C           1     174.235 189.464 268.455  0.00  0.00     0.128 A 
HETATM   17  N           1     173.103 190.084 268.084  0.00  0.00    -0.238 NA
HETATM   18  C           1     172.295 189.381 267.268  0.00  0.00     0.034 A 
HETATM   19  C           1     171.017 190.017 266.818  0.00  0.00     0.070 C 
HETATM   20  C           1     172.581 188.110 266.824  0.00  0.00     0.053 A 
HETATM   21  C           1     173.769 187.577 267.271  0.00  0.00     0.034 A 
HETATM   22  C           1     174.138 186.198 266.824  0.00  0.00     0.070 C 
HETATM   23  N           1     174.617 188.231 268.086  0.00  0.00    -0.238 NA
ENDBRANCH  15  16
ENDBRANCH  14  15
ENDBRANCH  12  14
ENDBRANCH  11  12
ENDBRANCH   9  11
BRANCH   8  24
HETATM   24  S           1     173.033 186.790 274.198  0.00  0.00    -0.105 SA
BRANCH  24  25
HETATM   25  C           1     173.754 185.608 275.371  0.00  0.00     0.119 C 
BRANCH  25  26
HETATM   26  C           1     175.184 185.967 275.629  0.00  0.00    -0.049 A 
HETATM   27  C           1     176.098 184.978 275.993  0.00  0.00     0.008 A 
HETATM   28  C           1     177.429 185.314 276.234  0.00  0.00     0.001 A 
HETATM   29  C           1     177.848 186.638 276.110  0.00  0.00     0.000 A 
HETATM   30  C           1     176.935 187.628 275.745  0.00  0.00     0.001 A 
HETATM   31  C           1     175.603 187.292 275.505  0.00  0.00     0.008 A 
ENDBRANCH  25  26
ENDBRANCH  24  25
ENDBRANCH   8  24
TORSDOF 8
ENDMDL
