MODEL 1
REMARK VINA RESULT:      -6.3      0.000      0.000
REMARK  7 active torsions:
REMARK  status: ('A' for Active; 'I' for Inactive)
REMARK    1  A    between atoms: C_8  and  S_19 
REMARK    2  A    between atoms: C_9  and  C_11 
REMARK    3  A    between atoms: C_11  and  N_12 
REMARK    4  A    between atoms: N_12  and  C_13 
REMARK    5  A    between atoms: C_13  and  C_14 
REMARK    6  A    between atoms: C_14  and  C_15 
REMARK    7  A    between atoms: C_15  and  N_16 
ROOT
HETATM    1  C           1     171.615 187.493 292.213  0.00  0.00     0.001 A 
HETATM    2  C           1     172.133 186.222 292.439  0.00  0.00     0.002 A 
HETATM    3  C           1     172.719 185.512 291.387  0.00  0.00     0.032 A 
HETATM    4  C           1     172.803 186.040 290.106  0.00  0.00     0.068 A 
HETATM    5  C           1     172.277 187.330 289.882  0.00  0.00    -0.007 A 
HETATM    6  C           1     171.686 188.048 290.937  0.00  0.00     0.014 A 
HETATM    7  N           1     173.378 185.317 289.127  0.00  0.00    -0.241 NA
HETATM    8  C           1     173.442 185.862 287.892  0.00  0.00     0.101 A 
HETATM    9  C           1     172.956 187.116 287.575  0.00  0.00     0.006 A 
HETATM   10  C           1     172.364 187.860 288.587  0.00  0.00     0.025 A 
ENDROOT
BRANCH   9  11
HETATM   11  C           1     173.064 187.655 286.183  0.00  0.00     0.311 C 
BRANCH  11  12
HETATM   12  N           1     171.794 187.528 285.519  0.00  0.00     0.087 N 
HETATM   13  H           1     171.451 186.574 285.622  0.00  0.00     0.316 HD
BRANCH  12  14
HETATM   14  C           1     172.000 187.816 284.125  0.00  0.00     0.272 C 
BRANCH  14  15
HETATM   15  C           1     172.668 186.623 283.453  0.00  0.00     0.060 C 
BRANCH  15  16
HETATM   16  C           1     173.807 187.112 282.568  0.00  0.00     0.273 C 
BRANCH  16  17
HETATM   17  N           1     174.736 186.037 282.345  0.00  0.00     0.080 N 
HETATM   18  C           1     175.863 186.245 283.212  0.00  0.00     0.309 C 
HETATM   19  C           1     174.095 184.814 282.747  0.00  0.00     0.309 C 
ENDBRANCH  16  17
ENDBRANCH  15  16
ENDBRANCH  14  15
ENDBRANCH  12  14
ENDBRANCH  11  12
ENDBRANCH   9  11
BRANCH   8  20
HETATM   20  S           1     174.215 184.887 286.570  0.00  0.00    -0.114 SA
HETATM   21  C           1     175.899 185.423 286.986  0.00  0.00     0.097 C 
ENDBRANCH   8  20
TORSDOF 7
ENDMDL
MODEL 2
REMARK VINA RESULT:      -6.2      1.714      2.864
REMARK  7 active torsions:
REMARK  status: ('A' for Active; 'I' for Inactive)
REMARK    1  A    between atoms: C_8  and  S_19 
REMARK    2  A    between atoms: C_9  and  C_11 
REMARK    3  A    between atoms: C_11  and  N_12 
REMARK    4  A    between atoms: N_12  and  C_13 
REMARK    5  A    between atoms: C_13  and  C_14 
REMARK    6  A    between atoms: C_14  and  C_15 
REMARK    7  A    between atoms: C_15  and  N_16 
ROOT
HETATM    1  C           1     171.764 186.372 293.143  0.00  0.00     0.001 A 
HETATM    2  C           1     170.902 187.372 292.703  0.00  0.00     0.002 A 
HETATM    3  C           1     170.970 187.815 291.378  0.00  0.00     0.032 A 
HETATM    4  C           1     171.880 187.284 290.475  0.00  0.00     0.068 A 
HETATM    5  C           1     172.752 186.270 290.926  0.00  0.00    -0.007 A 
HETATM    6  C           1     172.687 185.821 292.258  0.00  0.00     0.014 A 
HETATM    7  N           1     171.905 187.744 289.211  0.00  0.00    -0.241 NA
HETATM    8  C           1     172.804 187.205 288.358  0.00  0.00     0.101 A 
HETATM    9  C           1     173.698 186.209 288.706  0.00  0.00     0.006 A 
HETATM   10  C           1     173.669 185.735 290.011  0.00  0.00     0.025 A 
ENDROOT
BRANCH   9  11
HETATM   11  C           1     174.665 185.658 287.707  0.00  0.00     0.311 C 
BRANCH  11  12
HETATM   12  N           1     174.006 184.674 286.892  0.00  0.00     0.087 N 
HETATM   13  H           1     173.730 183.882 287.472  0.00  0.00     0.316 HD
BRANCH  12  14
HETATM   14  C           1     174.943 184.233 285.894  0.00  0.00     0.272 C 
BRANCH  14  15
HETATM   15  C           1     174.997 185.251 284.762  0.00  0.00     0.060 C 
BRANCH  15  16
HETATM   16  C           1     173.954 184.896 283.710  0.00  0.00     0.273 C 
BRANCH  16  17
HETATM   17  N           1     174.517 185.071 282.398  0.00  0.00     0.080 N 
HETATM   18  C           1     173.648 185.948 281.662  0.00  0.00     0.309 C 
HETATM   19  C           1     175.783 185.737 282.551  0.00  0.00     0.309 C 
ENDBRANCH  16  17
ENDBRANCH  15  16
ENDBRANCH  14  15
ENDBRANCH  12  14
ENDBRANCH  11  12
ENDBRANCH   9  11
BRANCH   8  20
HETATM   20  S           1     172.840 187.825 286.653  0.00  0.00    -0.114 SA
HETATM   21  C           1     171.033 187.928 286.517  0.00  0.00     0.097 C 
ENDBRANCH   8  20
TORSDOF 7
ENDMDL
MODEL 3
REMARK VINA RESULT:      -6.2      2.184      7.442
REMARK  7 active torsions:
REMARK  status: ('A' for Active; 'I' for Inactive)
REMARK    1  A    between atoms: C_8  and  S_19 
REMARK    2  A    between atoms: C_9  and  C_11 
REMARK    3  A    between atoms: C_11  and  N_12 
REMARK    4  A    between atoms: N_12  and  C_13 
REMARK    5  A    between atoms: C_13  and  C_14 
REMARK    6  A    between atoms: C_14  and  C_15 
REMARK    7  A    between atoms: C_15  and  N_16 
ROOT
HETATM    1  C           1     174.674 184.696 284.024  0.00  0.00     0.001 A 
HETATM    2  C           1     173.572 185.322 283.450  0.00  0.00     0.002 A 
HETATM    3  C           1     172.684 186.043 284.254  0.00  0.00     0.032 A 
HETATM    4  C           1     172.867 186.158 285.625  0.00  0.00     0.068 A 
HETATM    5  C           1     173.987 185.522 286.203  0.00  0.00    -0.007 A 
HETATM    6  C           1     174.883 184.795 285.398  0.00  0.00     0.014 A 
HETATM    7  N           1     171.985 186.863 286.355  0.00  0.00    -0.241 NA
HETATM    8  C           1     172.194 186.955 287.687  0.00  0.00     0.101 A 
HETATM    9  C           1     173.259 186.368 288.343  0.00  0.00     0.006 A 
HETATM   10  C           1     174.169 185.640 287.587  0.00  0.00     0.025 A 
ENDROOT
BRANCH   9  11
HETATM   11  C           1     173.427 186.512 289.823  0.00  0.00     0.311 C 
BRANCH  11  12
HETATM   12  N           1     173.142 185.257 290.464  0.00  0.00     0.087 N 
HETATM   13  H           1     172.977 184.543 289.754  0.00  0.00     0.316 HD
BRANCH  12  14
HETATM   14  C           1     171.953 185.430 291.254  0.00  0.00     0.272 C 
BRANCH  14  15
HETATM   15  C           1     172.256 186.346 292.434  0.00  0.00     0.060 C 
BRANCH  15  16
HETATM   16  C           1     171.162 187.399 292.553  0.00  0.00     0.273 C 
BRANCH  16  17
HETATM   17  N           1     169.902 186.755 292.812  0.00  0.00     0.080 N 
HETATM   18  C           1     169.580 186.964 294.197  0.00  0.00     0.309 C 
HETATM   19  C           1     168.900 187.423 292.025  0.00  0.00     0.309 C 
ENDBRANCH  16  17
ENDBRANCH  15  16
ENDBRANCH  14  15
ENDBRANCH  12  14
ENDBRANCH  11  12
ENDBRANCH   9  11
BRANCH   8  20
HETATM   20  S           1     171.003 187.905 288.673  0.00  0.00    -0.114 SA
HETATM   21  C           1     169.945 188.298 287.252  0.00  0.00     0.097 C 
ENDBRANCH   8  20
TORSDOF 7
ENDMDL
MODEL 4
REMARK VINA RESULT:      -5.9      5.659     11.178
REMARK  7 active torsions:
REMARK  status: ('A' for Active; 'I' for Inactive)
REMARK    1  A    between atoms: C_8  and  S_19 
REMARK    2  A    between atoms: C_9  and  C_11 
REMARK    3  A    between atoms: C_11  and  N_12 
REMARK    4  A    between atoms: N_12  and  C_13 
REMARK    5  A    between atoms: C_13  and  C_14 
REMARK    6  A    between atoms: C_14  and  C_15 
REMARK    7  A    between atoms: C_15  and  N_16 
ROOT
HETATM    1  C           1     177.610 186.483 274.768  0.00  0.00     0.001 A 
HETATM    2  C           1     176.742 185.757 273.960  0.00  0.00     0.002 A 
HETATM    3  C           1     175.471 185.414 274.435  0.00  0.00     0.032 A 
HETATM    4  C           1     175.041 185.781 275.703  0.00  0.00     0.068 A 
HETATM    5  C           1     175.926 186.519 276.519  0.00  0.00    -0.007 A 
HETATM    6  C           1     177.204 186.865 276.046  0.00  0.00     0.014 A 
HETATM    7  N           1     173.810 185.428 276.113  0.00  0.00    -0.241 NA
HETATM    8  C           1     173.424 185.801 277.353  0.00  0.00     0.101 A 
HETATM    9  C           1     174.218 186.523 278.224  0.00  0.00     0.006 A 
HETATM   10  C           1     175.489 186.887 277.798  0.00  0.00     0.025 A 
ENDROOT
BRANCH   9  11
HETATM   11  C           1     173.722 186.902 279.584  0.00  0.00     0.311 C 
BRANCH  11  12
HETATM   12  N           1     174.842 187.144 280.453  0.00  0.00     0.087 N 
HETATM   13  H           1     175.619 186.541 280.182  0.00  0.00     0.316 HD
BRANCH  12  14
HETATM   14  C           1     174.432 186.823 281.794  0.00  0.00     0.272 C 
BRANCH  14  15
HETATM   15  C           1     175.300 185.694 282.335  0.00  0.00     0.060 C 
BRANCH  15  16
HETATM   16  C           1     174.492 184.860 283.321  0.00  0.00     0.273 C 
BRANCH  16  17
HETATM   17  N           1     174.030 185.700 284.393  0.00  0.00     0.080 N 
HETATM   18  C           1     172.669 185.335 284.680  0.00  0.00     0.309 C 
HETATM   19  C           1     174.818 185.397 285.557  0.00  0.00     0.309 C 
ENDBRANCH  16  17
ENDBRANCH  15  16
ENDBRANCH  14  15
ENDBRANCH  12  14
ENDBRANCH  11  12
ENDBRANCH   9  11
BRANCH   8  20
HETATM   20  S           1     171.763 185.324 277.908  0.00  0.00    -0.114 SA
HETATM   21  C           1     170.922 186.529 276.842  0.00  0.00     0.097 C 
ENDBRANCH   8  20
TORSDOF 7
ENDMDL
MODEL 5
REMARK VINA RESULT:      -5.9      1.788      7.301
REMARK  7 active torsions:
REMARK  status: ('A' for Active; 'I' for Inactive)
REMARK    1  A    between atoms: C_8  and  S_19 
REMARK    2  A    between atoms: C_9  and  C_11 
REMARK    3  A    between atoms: C_11  and  N_12 
REMARK    4  A    between atoms: N_12  and  C_13 
REMARK    5  A    between atoms: C_13  and  C_14 
REMARK    6  A    between atoms: C_14  and  C_15 
REMARK    7  A    between atoms: C_15  and  N_16 
ROOT
HETATM    1  C           1     175.394 186.196 281.900  0.00  0.00     0.001 A 
HETATM    2  C           1     174.065 186.248 281.495  0.00  0.00     0.002 A 
HETATM    3  C           1     173.044 186.044 282.430  0.00  0.00     0.032 A 
HETATM    4  C           1     173.317 185.787 283.766  0.00  0.00     0.068 A 
HETATM    5  C           1     174.668 185.735 284.172  0.00  0.00    -0.007 A 
HETATM    6  C           1     175.697 185.940 283.235  0.00  0.00     0.014 A 
HETATM    7  N           1     172.300 185.598 284.626  0.00  0.00    -0.241 NA
HETATM    8  C           1     172.602 185.349 285.920  0.00  0.00     0.101 A 
HETATM    9  C           1     173.892 185.280 286.411  0.00  0.00     0.006 A 
HETATM   10  C           1     174.940 185.476 285.522  0.00  0.00     0.025 A 
ENDROOT
BRANCH   9  11
HETATM   11  C           1     174.151 185.001 287.859  0.00  0.00     0.311 C 
BRANCH  11  12
HETATM   12  N           1     174.538 186.219 288.520  0.00  0.00     0.087 N 
HETATM   13  H           1     175.493 186.460 288.256  0.00  0.00     0.316 HD
BRANCH  12  14
HETATM   14  C           1     174.478 185.984 289.938  0.00  0.00     0.272 C 
BRANCH  14  15
HETATM   15  C           1     173.029 185.773 290.358  0.00  0.00     0.060 C 
BRANCH  15  16
HETATM   16  C           1     172.381 187.121 290.640  0.00  0.00     0.273 C 
BRANCH  16  17
HETATM   17  N           1     171.398 186.973 291.679  0.00  0.00     0.080 N 
HETATM   18  C           1     170.365 186.103 291.184  0.00  0.00     0.309 C 
HETATM   19  C           1     172.031 186.312 292.789  0.00  0.00     0.309 C 
ENDBRANCH  16  17
ENDBRANCH  15  16
ENDBRANCH  14  15
ENDBRANCH  12  14
ENDBRANCH  11  12
ENDBRANCH   9  11
BRANCH   8  20
HETATM   20  S           1     171.232 185.093 287.081  0.00  0.00    -0.114 SA
HETATM   21  C           1     170.915 186.867 287.298  0.00  0.00     0.097 C 
ENDBRANCH   8  20
TORSDOF 7
ENDMDL
MODEL 6
REMARK VINA RESULT:      -5.9      2.749      7.026
REMARK  7 active torsions:
REMARK  status: ('A' for Active; 'I' for Inactive)
REMARK    1  A    between atoms: C_8  and  S_19 
REMARK    2  A    between atoms: C_9  and  C_11 
REMARK    3  A    between atoms: C_11  and  N_12 
REMARK    4  A    between atoms: N_12  and  C_13 
REMARK    5  A    between atoms: C_13  and  C_14 
REMARK    6  A    between atoms: C_14  and  C_15 
REMARK    7  A    between atoms: C_15  and  N_16 
ROOT
HETATM    1  C           1     174.000 185.169 282.644  0.00  0.00     0.001 A 
HETATM    2  C           1     175.216 185.540 283.209  0.00  0.00     0.002 A 
HETATM    3  C           1     175.317 185.713 284.593  0.00  0.00     0.032 A 
HETATM    4  C           1     174.229 185.523 285.435  0.00  0.00     0.068 A 
HETATM    5  C           1     172.998 185.146 284.856  0.00  0.00    -0.007 A 
HETATM    6  C           1     172.892 184.972 283.465  0.00  0.00     0.014 A 
HETATM    7  N           1     174.377 185.701 286.760  0.00  0.00    -0.241 NA
HETATM    8  C           1     173.298 185.509 287.550  0.00  0.00     0.101 A 
HETATM    9  C           1     172.052 185.139 287.077  0.00  0.00     0.006 A 
HETATM   10  C           1     171.902 184.956 285.709  0.00  0.00     0.025 A 
ENDROOT
BRANCH   9  11
HETATM   11  C           1     170.901 184.943 288.013  0.00  0.00     0.311 C 
BRANCH  11  12
HETATM   12  N           1     169.904 185.950 287.767  0.00  0.00     0.087 N 
HETATM   13  H           1     170.175 186.816 288.233  0.00  0.00     0.316 HD
BRANCH  12  14
HETATM   14  C           1     168.661 185.479 288.315  0.00  0.00     0.272 C 
BRANCH  14  15
HETATM   15  C           1     168.075 186.543 289.235  0.00  0.00     0.060 C 
BRANCH  15  16
HETATM   16  C           1     168.221 186.096 290.684  0.00  0.00     0.273 C 
BRANCH  16  17
HETATM   17  N           1     169.239 186.882 291.328  0.00  0.00     0.080 N 
HETATM   18  C           1     168.711 187.337 292.585  0.00  0.00     0.309 C 
HETATM   19  C           1     170.349 186.012 291.609  0.00  0.00     0.309 C 
ENDBRANCH  16  17
ENDBRANCH  15  16
ENDBRANCH  14  15
ENDBRANCH  12  14
ENDBRANCH  11  12
ENDBRANCH   9  11
BRANCH   8  20
HETATM   20  S           1     173.495 185.749 289.337  0.00  0.00    -0.114 SA
HETATM   21  C           1     172.952 187.480 289.293  0.00  0.00     0.097 C 
ENDBRANCH   8  20
TORSDOF 7
ENDMDL
MODEL 7
REMARK VINA RESULT:      -5.7     12.442     15.635
REMARK  7 active torsions:
REMARK  status: ('A' for Active; 'I' for Inactive)
REMARK    1  A    between atoms: C_8  and  S_19 
REMARK    2  A    between atoms: C_9  and  C_11 
REMARK    3  A    between atoms: C_11  and  N_12 
REMARK    4  A    between atoms: N_12  and  C_13 
REMARK    5  A    between atoms: C_13  and  C_14 
REMARK    6  A    between atoms: C_14  and  C_15 
REMARK    7  A    between atoms: C_15  and  N_16 
ROOT
HETATM    1  C           1     177.955 185.939 275.837  0.00  0.00     0.001 A 
HETATM    2  C           1     176.905 185.335 276.520  0.00  0.00     0.002 A 
HETATM    3  C           1     175.717 185.034 275.846  0.00  0.00     0.032 A 
HETATM    4  C           1     175.549 185.321 274.498  0.00  0.00     0.068 A 
HETATM    5  C           1     176.618 185.933 273.809  0.00  0.00    -0.007 A 
HETATM    6  C           1     177.813 186.238 274.483  0.00  0.00     0.014 A 
HETATM    7  N           1     174.387 185.011 273.895  0.00  0.00    -0.241 NA
HETATM    8  C           1     174.257 185.304 272.582  0.00  0.00     0.101 A 
HETATM    9  C           1     175.245 185.902 271.824  0.00  0.00     0.006 A 
HETATM   10  C           1     176.444 186.221 272.449  0.00  0.00     0.025 A 
ENDROOT
BRANCH   9  11
HETATM   11  C           1     175.030 186.197 270.372  0.00  0.00     0.311 C 
BRANCH  11  12
HETATM   12  N           1     174.975 187.621 270.174  0.00  0.00     0.087 N 
HETATM   13  H           1     174.101 187.983 270.554  0.00  0.00     0.316 HD
BRANCH  12  14
HETATM   14  C           1     175.021 187.867 268.758  0.00  0.00     0.272 C 
BRANCH  14  15
HETATM   15  C           1     175.101 189.367 268.505  0.00  0.00     0.060 C 
BRANCH  15  16
HETATM   16  C           1     175.442 190.084 269.805  0.00  0.00     0.273 C 
BRANCH  16  17
HETATM   17  N           1     174.662 191.288 269.906  0.00  0.00     0.080 N 
HETATM   18  C           1     173.334 190.918 270.313  0.00  0.00     0.309 C 
HETATM   19  C           1     175.233 192.090 270.955  0.00  0.00     0.309 C 
ENDBRANCH  16  17
ENDBRANCH  15  16
ENDBRANCH  14  15
ENDBRANCH  12  14
ENDBRANCH  11  12
ENDBRANCH   9  11
BRANCH   8  20
HETATM   20  S           1     172.690 184.888 271.767  0.00  0.00    -0.114 SA
HETATM   21  C           1     173.194 183.186 271.385  0.00  0.00     0.097 C 
ENDBRANCH   8  20
TORSDOF 7
ENDMDL
MODEL 8
REMARK VINA RESULT:      -5.7     12.454     15.111
REMARK  7 active torsions:
REMARK  status: ('A' for Active; 'I' for Inactive)
REMARK    1  A    between atoms: C_8  and  S_19 
REMARK    2  A    between atoms: C_9  and  C_11 
REMARK    3  A    between atoms: C_11  and  N_12 
REMARK    4  A    between atoms: N_12  and  C_13 
REMARK    5  A    between atoms: C_13  and  C_14 
REMARK    6  A    between atoms: C_14  and  C_15 
REMARK    7  A    between atoms: C_15  and  N_16 
ROOT
HETATM    1  C           1     177.943 185.721 276.158  0.00  0.00     0.001 A 
HETATM    2  C           1     176.871 184.913 276.520  0.00  0.00     0.002 A 
HETATM    3  C           1     175.694 184.937 275.765  0.00  0.00     0.032 A 
HETATM    4  C           1     175.558 185.754 274.650  0.00  0.00     0.068 A 
HETATM    5  C           1     176.649 186.572 274.287  0.00  0.00    -0.007 A 
HETATM    6  C           1     177.834 186.550 275.044  0.00  0.00     0.014 A 
HETATM    7  N           1     174.405 185.741 273.957  0.00  0.00    -0.241 NA
HETATM    8  C           1     174.307 186.548 272.877  0.00  0.00     0.101 A 
HETATM    9  C           1     175.319 187.383 272.443  0.00  0.00     0.006 A 
HETATM   10  C           1     176.508 187.394 273.161  0.00  0.00     0.025 A 
ENDROOT
BRANCH   9  11
HETATM   11  C           1     175.139 188.249 271.236  0.00  0.00     0.311 C 
BRANCH  11  12
HETATM   12  N           1     175.842 189.490 271.426  0.00  0.00     0.087 N 
HETATM   13  H           1     175.489 189.955 272.262  0.00  0.00     0.316 HD
BRANCH  12  14
HETATM   14  C           1     175.590 190.315 270.275  0.00  0.00     0.272 C 
BRANCH  14  15
HETATM   15  C           1     175.517 191.776 270.703  0.00  0.00     0.060 C 
BRANCH  15  16
HETATM   16  C           1     174.385 191.955 271.706  0.00  0.00     0.273 C 
BRANCH  16  17
HETATM   17  N           1     174.221 193.353 271.999  0.00  0.00     0.080 N 
HETATM   18  C           1     172.874 193.719 271.655  0.00  0.00     0.309 C 
HETATM   19  C           1     174.370 193.522 273.420  0.00  0.00     0.309 C 
ENDBRANCH  16  17
ENDBRANCH  15  16
ENDBRANCH  14  15
ENDBRANCH  12  14
ENDBRANCH  11  12
ENDBRANCH   9  11
BRANCH   8  20
HETATM   20  S           1     172.753 186.533 271.941  0.00  0.00    -0.114 SA
HETATM   21  C           1     172.835 184.755 271.586  0.00  0.00     0.097 C 
ENDBRANCH   8  20
TORSDOF 7
ENDMDL
MODEL 9
REMARK VINA RESULT:      -5.7      1.041      1.449
REMARK  7 active torsions:
REMARK  status: ('A' for Active; 'I' for Inactive)
REMARK    1  A    between atoms: C_8  and  S_19 
REMARK    2  A    between atoms: C_9  and  C_11 
REMARK    3  A    between atoms: C_11  and  N_12 
REMARK    4  A    between atoms: N_12  and  C_13 
REMARK    5  A    between atoms: C_13  and  C_14 
REMARK    6  A    between atoms: C_14  and  C_15 
REMARK    7  A    between atoms: C_15  and  N_16 
ROOT
HETATM    1  C           1     171.521 187.776 291.522  0.00  0.00     0.001 A 
HETATM    2  C           1     172.144 186.595 291.911  0.00  0.00     0.002 A 
HETATM    3  C           1     172.824 185.821 290.964  0.00  0.00     0.032 A 
HETATM    4  C           1     172.899 186.199 289.630  0.00  0.00     0.068 A 
HETATM    5  C           1     172.266 187.399 289.241  0.00  0.00    -0.007 A 
HETATM    6  C           1     171.581 188.179 290.190  0.00  0.00     0.014 A 
HETATM    7  N           1     173.565 185.421 288.758  0.00  0.00    -0.241 NA
HETATM    8  C           1     173.619 185.818 287.468  0.00  0.00     0.101 A 
HETATM    9  C           1     173.031 186.975 286.991  0.00  0.00     0.006 A 
HETATM   10  C           1     172.344 187.777 287.894  0.00  0.00     0.025 A 
ENDROOT
BRANCH   9  11
HETATM   11  C           1     173.132 187.352 285.547  0.00  0.00     0.311 C 
BRANCH  11  12
HETATM   12  N           1     171.936 188.042 285.145  0.00  0.00     0.087 N 
HETATM   13  H           1     171.127 187.604 285.586  0.00  0.00     0.316 HD
BRANCH  12  14
HETATM   14  C           1     171.824 187.926 283.716  0.00  0.00     0.272 C 
BRANCH  14  15
HETATM   15  C           1     173.113 187.342 283.150  0.00  0.00     0.060 C 
BRANCH  15  16
HETATM   16  C           1     172.780 186.186 282.217  0.00  0.00     0.273 C 
BRANCH  16  17
HETATM   17  N           1     173.467 186.365 280.967  0.00  0.00     0.080 N 
HETATM   18  C           1     172.548 186.976 280.045  0.00  0.00     0.309 C 
HETATM   19  C           1     174.543 187.293 281.189  0.00  0.00     0.309 C 
ENDBRANCH  16  17
ENDBRANCH  15  16
ENDBRANCH  14  15
ENDBRANCH  12  14
ENDBRANCH  11  12
ENDBRANCH   9  11
BRANCH   8  20
HETATM   20  S           1     174.516 184.770 286.290  0.00  0.00    -0.114 SA
HETATM   21  C           1     176.150 185.364 286.810  0.00  0.00     0.097 C 
ENDBRANCH   8  20
TORSDOF 7
ENDMDL
