REMARK  9 active torsions:
REMARK  status: ('A' for Active; 'I' for Inactive)
REMARK    1  A    between atoms: C_8  and  S_25 
REMARK    2  A    between atoms: C_9  and  C_11 
REMARK    3  A    between atoms: C_11  and  N_12 
REMARK    4  A    between atoms: N_12  and  C_14 
REMARK    5  A    between atoms: C_14  and  C_15 
REMARK    6  A    between atoms: C_18  and  C_21 
REMARK    7  A    between atoms: S_25  and  C_26 
REMARK    8  A    between atoms: C_26  and  C_27 
REMARK    9  A    between atoms: C_21  and  O_23 
ROOT
HETATM    1  C           1      -3.495  -6.082  -1.233  0.00  0.00     0.001 A 
HETATM    2  C           1      -2.142  -6.272  -1.493  0.00  0.00     0.002 A 
HETATM    3  C           1      -1.245  -5.212  -1.324  0.00  0.00     0.032 A 
HETATM    4  C           1      -1.666  -3.959  -0.899  0.00  0.00     0.068 A 
HETATM    5  C           1      -3.040  -3.772  -0.636  0.00  0.00    -0.007 A 
HETATM    6  C           1      -3.945  -4.835  -0.805  0.00  0.00     0.014 A 
HETATM    7  N           1      -0.764  -2.972  -0.751  0.00  0.00    -0.241 NA
HETATM    8  C           1      -1.208  -1.765  -0.336  0.00  0.00     0.102 A 
HETATM    9  C           1      -2.532  -1.485  -0.054  0.00  0.00     0.006 A 
HETATM   10  C           1      -3.461  -2.506  -0.207  0.00  0.00     0.025 A 
ENDROOT
BRANCH   9  11
HETATM   11  C           1      -2.951  -0.122   0.403  0.00  0.00     0.311 C 
BRANCH  11  12
HETATM   12  N           1      -1.799   0.736   0.475  0.00  0.00     0.091 N 
HETATM   13  H           1      -1.135   0.357   1.150  0.00  0.00     0.316 HD
BRANCH  12  14
HETATM   14  C           1      -2.245   2.030   0.916  0.00  0.00     0.308 C 
BRANCH  14  15
HETATM   15  C           1      -1.074   2.958   1.006  0.00  0.00    -0.030 A 
HETATM   16  C           1      -1.170   4.132   1.752  0.00  0.00     0.010 A 
HETATM   17  C           1      -0.079   4.997   1.835  0.00  0.00     0.019 A 
HETATM   18  C           1       1.108   4.687   1.173  0.00  0.00     0.037 A 
HETATM   19  C           1       1.205   3.513   0.427  0.00  0.00     0.019 A 
HETATM   20  C           1       0.114   2.648   0.343  0.00  0.00     0.010 A 
BRANCH  18  21
HETATM   21  C           1       2.165   5.525   1.253  0.00  0.00     0.176 C 
HETATM   22  O           1       2.082   6.542   1.899  0.00  0.00    -0.646 OA
BRANCH  21  23
HETATM   23  O           1       3.305   5.228   0.618  0.00  0.00    -0.773 OA
HETATM   24  H           1       3.919   5.956   0.810  0.00  0.00     0.167 HD
ENDBRANCH  21  23
ENDBRANCH  18  21
ENDBRANCH  14  15
ENDBRANCH  12  14
ENDBRANCH  11  12
ENDBRANCH   9  11
BRANCH   8  25
HETATM   25  S           1       0.007  -0.432  -0.136  0.00  0.00    -0.105 SA
BRANCH  25  26
HETATM   26  C           1       1.411  -1.462  -0.647  0.00  0.00     0.119 C 
BRANCH  26  27
HETATM   27  C           1       2.668  -0.651  -0.604  0.00  0.00    -0.049 A 
HETATM   28  C           1       3.801  -1.083  -1.294  0.00  0.00     0.008 A 
HETATM   29  C           1       4.972  -0.327  -1.254  0.00  0.00     0.001 A 
HETATM   30  C           1       5.011   0.861  -0.525  0.00  0.00     0.000 A 
HETATM   31  C           1       3.878   1.293   0.165  0.00  0.00     0.001 A 
HETATM   32  C           1       2.707   0.537   0.125  0.00  0.00     0.008 A 
ENDBRANCH  26  27
ENDBRANCH  25  26
ENDBRANCH   8  25
TORSDOF 9
