REMARK  8 active torsions:
REMARK  status: ('A' for Active; 'I' for Inactive)
REMARK    1  A    between atoms: C_8  and  C_9 
REMARK    2  A    between atoms: C_9  and  S_10 
REMARK    3  A    between atoms: S_10  and  C_23 
REMARK    4  A    between atoms: O_11  and  C_13 
REMARK    5  A    between atoms: C_17  and  C_18 
REMARK    6  A    between atoms: C_18  and  N_19 
REMARK    7  A    between atoms: N_19  and  C_20 
REMARK    8  A    between atoms: C_20  and  C_22 
ROOT
HETATM    1  C           1      -3.320  -2.195  -0.124  0.00  0.00     0.025 A 
HETATM    2  C           1      -2.391  -1.173   0.029  0.00  0.00     0.006 A 
HETATM    3  C           1      -1.067  -1.454  -0.253  0.00  0.00     0.102 A 
HETATM    4  N           1      -0.623  -2.660  -0.668  0.00  0.00    -0.241 NA
HETATM    5  C           1      -3.804  -4.524  -0.722  0.00  0.00     0.014 A 
HETATM    6  C           1      -2.899  -3.461  -0.553  0.00  0.00    -0.007 A 
HETATM    7  C           1      -1.525  -3.648  -0.816  0.00  0.00     0.068 A 
HETATM    8  C           1      -1.104  -4.901  -1.241  0.00  0.00     0.032 A 
HETATM    9  C           1      -2.001  -5.960  -1.410  0.00  0.00     0.002 A 
HETATM   10  C           1      -3.354  -5.771  -1.150  0.00  0.00     0.001 A 
ENDROOT
BRANCH   2  11
HETATM   11  C           1      -2.810   0.189   0.486  0.00  0.00     0.311 C 
BRANCH  11  12
HETATM   12  N           1      -1.658   1.047   0.558  0.00  0.00     0.091 N 
HETATM   13  H           1      -0.994   0.668   1.233  0.00  0.00     0.316 HD
BRANCH  12  14
HETATM   14  C           1      -2.104   2.341   0.999  0.00  0.00     0.308 C 
BRANCH  14  15
HETATM   15  C           1      -0.933   3.269   1.089  0.00  0.00    -0.028 A 
HETATM   16  C           1       0.255   2.959   0.426  0.00  0.00     0.045 A 
HETATM   17  C           1       1.346   3.824   0.509  0.00  0.00     0.066 A 
HETATM   18  C           1       1.249   4.999   1.255  0.00  0.00     0.036 A 
HETATM   19  C           1       0.062   5.309   1.918  0.00  0.00     0.003 A 
HETATM   20  C           1      -1.029   4.444   1.835  0.00  0.00     0.009 A 
BRANCH  17  21
HETATM   21  O           1       2.500   3.523  -0.134  0.00  0.00    -0.361 OA
HETATM   22  H           1       2.375   2.676  -0.594  0.00  0.00     0.217 HD
ENDBRANCH  17  21
ENDBRANCH  14  15
ENDBRANCH  12  14
ENDBRANCH  11  12
ENDBRANCH   2  11
BRANCH   3  23
HETATM   23  S           1       0.148  -0.120  -0.053  0.00  0.00    -0.105 SA
BRANCH  23  24
HETATM   24  C           1       1.552  -1.151  -0.564  0.00  0.00     0.119 C 
BRANCH  24  25
HETATM   25  C           1       2.809  -0.340  -0.522  0.00  0.00    -0.049 A 
HETATM   26  C           1       2.848   0.849   0.208  0.00  0.00     0.008 A 
HETATM   27  C           1       4.019   1.605   0.247  0.00  0.00     0.001 A 
HETATM   28  C           1       5.152   1.173  -0.442  0.00  0.00     0.000 A 
HETATM   29  C           1       5.113  -0.016  -1.171  0.00  0.00     0.001 A 
HETATM   30  C           1       3.942  -0.772  -1.211  0.00  0.00     0.008 A 
ENDBRANCH  24  25
ENDBRANCH  23  24
ENDBRANCH   3  23
TORSDOF 8
