REMARK  8 active torsions:
REMARK  status: ('A' for Active; 'I' for Inactive)
REMARK    1  A    between atoms: C_8  and  S_20 
REMARK    2  A    between atoms: C_9  and  C_11 
REMARK    3  A    between atoms: C_11  and  N_12 
REMARK    4  A    between atoms: N_12  and  C_13 
REMARK    5  A    between atoms: C_13  and  C_14 
REMARK    6  A    between atoms: C_17  and  O_28 
REMARK    7  A    between atoms: S_20  and  C_21 
REMARK    8  A    between atoms: C_21  and  C_22 
ROOT
HETATM    1  C           1      -3.367  -5.831  -1.181  0.00  0.00     0.001 A 
HETATM    2  C           1      -2.014  -6.020  -1.441  0.00  0.00     0.002 A 
HETATM    3  C           1      -1.117  -4.961  -1.272  0.00  0.00     0.032 A 
HETATM    4  C           1      -1.538  -3.708  -0.847  0.00  0.00     0.068 A 
HETATM    5  C           1      -2.912  -3.521  -0.584  0.00  0.00    -0.007 A 
HETATM    6  C           1      -3.817  -4.584  -0.753  0.00  0.00     0.014 A 
HETATM    7  N           1      -0.636  -2.720  -0.699  0.00  0.00    -0.241 NA
HETATM    8  C           1      -1.080  -1.514  -0.284  0.00  0.00     0.102 A 
HETATM    9  C           1      -2.403  -1.233  -0.002  0.00  0.00     0.006 A 
HETATM   10  C           1      -3.333  -2.255  -0.155  0.00  0.00     0.025 A 
ENDROOT
BRANCH   9  11
HETATM   11  C           1      -2.823   0.129   0.455  0.00  0.00     0.311 C 
BRANCH  11  12
HETATM   12  N           1      -1.671   0.987   0.527  0.00  0.00     0.091 N 
HETATM   13  H           1      -1.007   0.608   1.202  0.00  0.00     0.316 HD
BRANCH  12  14
HETATM   14  C           1      -2.117   2.281   0.968  0.00  0.00     0.308 C 
BRANCH  14  15
HETATM   15  C           1      -0.946   3.209   1.058  0.00  0.00    -0.030 A 
HETATM   16  C           1      -1.042   4.384   1.804  0.00  0.00     0.011 A 
HETATM   17  C           1       0.049   5.249   1.887  0.00  0.00     0.037 A 
HETATM   18  C           1       1.237   4.939   1.224  0.00  0.00     0.065 A 
HETATM   19  C           1       1.333   3.764   0.479  0.00  0.00     0.037 A 
HETATM   20  C           1       0.242   2.899   0.395  0.00  0.00     0.011 A 
BRANCH  18  21
HETATM   21  O           1       2.297   5.779   1.305  0.00  0.00    -0.361 OA
HETATM   22  H           1       3.023   5.397   0.784  0.00  0.00     0.217 HD
ENDBRANCH  18  21
ENDBRANCH  14  15
ENDBRANCH  12  14
ENDBRANCH  11  12
ENDBRANCH   9  11
BRANCH   8  23
HETATM   23  S           1       0.135  -0.180  -0.084  0.00  0.00    -0.105 SA
BRANCH  23  24
HETATM   24  C           1       1.539  -1.211  -0.595  0.00  0.00     0.119 C 
BRANCH  24  25
HETATM   25  C           1       2.796  -0.399  -0.553  0.00  0.00    -0.049 A 
HETATM   26  C           1       3.929  -0.832  -1.242  0.00  0.00     0.008 A 
HETATM   27  C           1       5.101  -0.076  -1.202  0.00  0.00     0.001 A 
HETATM   28  C           1       5.139   1.113  -0.473  0.00  0.00     0.000 A 
HETATM   29  C           1       4.006   1.545   0.216  0.00  0.00     0.001 A 
HETATM   30  C           1       2.835   0.789   0.177  0.00  0.00     0.008 A 
ENDBRANCH  24  25
ENDBRANCH  23  24
ENDBRANCH   8  23
TORSDOF 8
