MODEL 1
REMARK VINA RESULT:      -6.8      0.000      0.000
REMARK  8 active torsions:
REMARK  status: ('A' for Active; 'I' for Inactive)
REMARK    1  A    between atoms: C_8  and  S_12 
REMARK    2  A    between atoms: C_9  and  C_11 
REMARK    3  A    between atoms: C_11  and  N_20 
REMARK    4  A    between atoms: S_12  and  C_13 
REMARK    5  A    between atoms: C_13  and  C_14 
REMARK    6  A    between atoms: N_20  and  C_21 
REMARK    7  A    between atoms: C_21  and  C_22 
REMARK    8  A    between atoms: C_22  and  N_23 
ROOT
HETATM    1  C           1     175.281 186.162 281.824  0.00  0.00     0.001 A 
HETATM    2  C           1     173.940 186.155 281.459  0.00  0.00     0.002 A 
HETATM    3  C           1     172.956 185.943 282.428  0.00  0.00     0.032 A 
HETATM    4  C           1     173.277 185.736 283.764  0.00  0.00     0.068 A 
HETATM    5  C           1     174.640 185.744 284.129  0.00  0.00    -0.007 A 
HETATM    6  C           1     175.634 185.957 283.157  0.00  0.00     0.014 A 
HETATM    7  N           1     172.293 185.537 284.659  0.00  0.00    -0.241 NA
HETATM    8  C           1     172.641 185.339 285.950  0.00  0.00     0.102 A 
HETATM    9  C           1     173.946 185.328 286.404  0.00  0.00     0.006 A 
HETATM   10  C           1     174.961 185.535 285.477  0.00  0.00     0.025 A 
ENDROOT
BRANCH   9  11
HETATM   11  C           1     174.258 185.102 287.850  0.00  0.00     0.311 C 
BRANCH  11  12
HETATM   12  N           1     174.257 186.362 288.544  0.00  0.00     0.089 N 
HETATM   13  H           1     175.159 186.821 288.416  0.00  0.00     0.316 HD
BRANCH  12  14
HETATM   14  C           1     174.049 186.092 289.941  0.00  0.00     0.300 C 
BRANCH  14  15
HETATM   15  C           1     172.781 186.793 290.412  0.00  0.00     0.301 C 
BRANCH  15  16
HETATM   16  N           1     171.867 185.822 290.949  0.00  0.00     0.081 N 
HETATM   17  C           1     172.617 184.941 291.803  0.00  0.00     0.309 C 
HETATM   18  C           1     170.918 186.524 291.771  0.00  0.00     0.309 C 
ENDBRANCH  15  16
ENDBRANCH  14  15
ENDBRANCH  12  14
ENDBRANCH  11  12
ENDBRANCH   9  11
BRANCH   8  19
HETATM   19  S           1     171.316 185.069 287.159  0.00  0.00    -0.105 SA
BRANCH  19  20
HETATM   20  C           1     170.864 186.825 287.246  0.00  0.00     0.119 C 
BRANCH  20  21
HETATM   21  C           1     169.735 187.004 288.214  0.00  0.00    -0.049 A 
HETATM   22  C           1     168.953 185.909 288.581  0.00  0.00     0.008 A 
HETATM   23  C           1     167.901 186.075 289.483  0.00  0.00     0.001 A 
HETATM   24  C           1     167.634 187.336 290.017  0.00  0.00     0.000 A 
HETATM   25  C           1     168.416 188.430 289.650  0.00  0.00     0.001 A 
HETATM   26  C           1     169.467 188.264 288.747  0.00  0.00     0.008 A 
ENDBRANCH  20  21
ENDBRANCH  19  20
ENDBRANCH   8  19
TORSDOF 8
ENDMDL
MODEL 2
REMARK VINA RESULT:      -6.8     12.818     16.935
REMARK  8 active torsions:
REMARK  status: ('A' for Active; 'I' for Inactive)
REMARK    1  A    between atoms: C_8  and  S_12 
REMARK    2  A    between atoms: C_9  and  C_11 
REMARK    3  A    between atoms: C_11  and  N_20 
REMARK    4  A    between atoms: S_12  and  C_13 
REMARK    5  A    between atoms: C_13  and  C_14 
REMARK    6  A    between atoms: N_20  and  C_21 
REMARK    7  A    between atoms: C_21  and  C_22 
REMARK    8  A    between atoms: C_22  and  N_23 
ROOT
HETATM    1  C           1     178.008 185.836 275.922  0.00  0.00     0.001 A 
HETATM    2  C           1     176.992 185.072 276.484  0.00  0.00     0.002 A 
HETATM    3  C           1     175.801 184.871 275.780  0.00  0.00     0.032 A 
HETATM    4  C           1     175.597 185.417 274.518  0.00  0.00     0.068 A 
HETATM    5  C           1     176.632 186.193 273.953  0.00  0.00    -0.007 A 
HETATM    6  C           1     177.831 186.397 274.659  0.00  0.00     0.014 A 
HETATM    7  N           1     174.433 185.195 273.881  0.00  0.00    -0.241 NA
HETATM    8  C           1     174.268 185.742 272.656  0.00  0.00     0.102 A 
HETATM    9  C           1     175.221 186.514 272.021  0.00  0.00     0.006 A 
HETATM   10  C           1     176.422 186.742 272.682  0.00  0.00     0.025 A 
ENDROOT
BRANCH   9  11
HETATM   11  C           1     174.968 187.088 270.661  0.00  0.00     0.311 C 
BRANCH  11  12
HETATM   12  N           1     175.101 188.519 270.713  0.00  0.00     0.089 N 
HETATM   13  H           1     174.281 188.920 271.168  0.00  0.00     0.316 HD
BRANCH  12  14
HETATM   14  C           1     175.182 188.999 269.360  0.00  0.00     0.300 C 
BRANCH  14  15
HETATM   15  C           1     174.552 190.384 269.273  0.00  0.00     0.301 C 
BRANCH  15  16
HETATM   16  N           1     174.608 191.018 270.563  0.00  0.00     0.081 N 
HETATM   17  C           1     175.726 191.924 270.556  0.00  0.00     0.309 C 
HETATM   18  C           1     173.412 191.801 270.717  0.00  0.00     0.309 C 
ENDBRANCH  15  16
ENDBRANCH  14  15
ENDBRANCH  12  14
ENDBRANCH  11  12
ENDBRANCH   9  11
BRANCH   8  19
HETATM   19  S           1     172.699 185.443 271.794  0.00  0.00    -0.105 SA
BRANCH  19  20
HETATM   20  C           1     172.981 183.657 271.633  0.00  0.00     0.119 C 
BRANCH  20  21
HETATM   21  C           1     174.077 183.411 270.643  0.00  0.00    -0.049 A 
HETATM   22  C           1     175.293 182.878 271.068  0.00  0.00     0.008 A 
HETATM   23  C           1     176.315 182.649 270.146  0.00  0.00     0.001 A 
HETATM   24  C           1     176.118 182.953 268.798  0.00  0.00     0.000 A 
HETATM   25  C           1     174.902 183.486 268.373  0.00  0.00     0.001 A 
HETATM   26  C           1     173.881 183.716 269.296  0.00  0.00     0.008 A 
ENDBRANCH  20  21
ENDBRANCH  19  20
ENDBRANCH   8  19
TORSDOF 8
ENDMDL
MODEL 3
REMARK VINA RESULT:      -6.5      5.784      9.859
REMARK  8 active torsions:
REMARK  status: ('A' for Active; 'I' for Inactive)
REMARK    1  A    between atoms: C_8  and  S_12 
REMARK    2  A    between atoms: C_9  and  C_11 
REMARK    3  A    between atoms: C_11  and  N_20 
REMARK    4  A    between atoms: S_12  and  C_13 
REMARK    5  A    between atoms: C_13  and  C_14 
REMARK    6  A    between atoms: N_20  and  C_21 
REMARK    7  A    between atoms: C_21  and  C_22 
REMARK    8  A    between atoms: C_22  and  N_23 
ROOT
HETATM    1  C           1     176.279 185.437 274.597  0.00  0.00     0.001 A 
HETATM    2  C           1     177.161 186.177 275.377  0.00  0.00     0.002 A 
HETATM    3  C           1     176.746 186.675 276.616  0.00  0.00     0.032 A 
HETATM    4  C           1     175.463 186.452 277.100  0.00  0.00     0.068 A 
HETATM    5  C           1     174.572 185.700 276.304  0.00  0.00    -0.007 A 
HETATM    6  C           1     174.986 185.198 275.058  0.00  0.00     0.014 A 
HETATM    7  N           1     175.111 186.952 278.298  0.00  0.00    -0.241 NA
HETATM    8  C           1     173.855 186.716 278.739  0.00  0.00     0.102 A 
HETATM    9  C           1     172.913 185.993 278.034  0.00  0.00     0.006 A 
HETATM   10  C           1     173.279 185.477 276.796  0.00  0.00     0.025 A 
ENDROOT
BRANCH   9  11
HETATM   11  C           1     171.539 185.771 278.585  0.00  0.00     0.311 C 
BRANCH  11  12
HETATM   12  N           1     170.563 186.061 277.570  0.00  0.00     0.089 N 
HETATM   13  H           1     171.035 186.220 276.680  0.00  0.00     0.316 HD
BRANCH  12  14
HETATM   14  C           1     169.866 187.256 277.962  0.00  0.00     0.300 C 
BRANCH  14  15
HETATM   15  C           1     170.556 188.471 277.354  0.00  0.00     0.301 C 
BRANCH  15  16
HETATM   16  N           1     170.539 188.364 275.920  0.00  0.00     0.081 N 
HETATM   17  C           1     169.585 189.318 275.422  0.00  0.00     0.309 C 
HETATM   18  C           1     171.838 188.751 275.438  0.00  0.00     0.309 C 
ENDBRANCH  15  16
ENDBRANCH  14  15
ENDBRANCH  12  14
ENDBRANCH  11  12
ENDBRANCH   9  11
BRANCH   8  19
HETATM   19  S           1     173.378 187.390 280.355  0.00  0.00    -0.105 SA
BRANCH  19  20
HETATM   20  C           1     174.791 186.651 281.223  0.00  0.00     0.119 C 
BRANCH  20  21
HETATM   21  C           1     174.336 186.100 282.539  0.00  0.00    -0.049 A 
HETATM   22  C           1     173.033 186.332 282.979  0.00  0.00     0.008 A 
HETATM   23  C           1     172.609 185.819 284.205  0.00  0.00     0.001 A 
HETATM   24  C           1     173.488 185.073 284.990  0.00  0.00     0.000 A 
HETATM   25  C           1     174.791 184.841 284.551  0.00  0.00     0.001 A 
HETATM   26  C           1     175.216 185.355 283.324  0.00  0.00     0.008 A 
ENDBRANCH  20  21
ENDBRANCH  19  20
ENDBRANCH   8  19
TORSDOF 8
ENDMDL
MODEL 4
REMARK VINA RESULT:      -6.5     13.064     16.440
REMARK  8 active torsions:
REMARK  status: ('A' for Active; 'I' for Inactive)
REMARK    1  A    between atoms: C_8  and  S_12 
REMARK    2  A    between atoms: C_9  and  C_11 
REMARK    3  A    between atoms: C_11  and  N_20 
REMARK    4  A    between atoms: S_12  and  C_13 
REMARK    5  A    between atoms: C_13  and  C_14 
REMARK    6  A    between atoms: N_20  and  C_21 
REMARK    7  A    between atoms: C_21  and  C_22 
REMARK    8  A    between atoms: C_22  and  N_23 
ROOT
HETATM    1  C           1     177.473 185.320 276.680  0.00  0.00     0.001 A 
HETATM    2  C           1     178.229 186.342 276.118  0.00  0.00     0.002 A 
HETATM    3  C           1     177.851 186.892 274.890  0.00  0.00     0.032 A 
HETATM    4  C           1     176.729 186.445 274.203  0.00  0.00     0.068 A 
HETATM    5  C           1     175.966 185.406 274.778  0.00  0.00    -0.007 A 
HETATM    6  C           1     176.344 184.850 276.013  0.00  0.00     0.014 A 
HETATM    7  N           1     176.407 187.007 273.023  0.00  0.00    -0.241 NA
HETATM    8  C           1     175.310 186.547 272.382  0.00  0.00     0.102 A 
HETATM    9  C           1     174.501 185.536 272.864  0.00  0.00     0.006 A 
HETATM   10  C           1     174.836 184.958 274.082  0.00  0.00     0.025 A 
ENDROOT
BRANCH   9  11
HETATM   11  C           1     173.300 185.078 272.097  0.00  0.00     0.311 C 
BRANCH  11  12
HETATM   12  N           1     173.326 183.645 271.978  0.00  0.00     0.089 N 
HETATM   13  H           1     173.968 183.258 272.668  0.00  0.00     0.316 HD
BRANCH  12  14
HETATM   14  C           1     173.793 183.326 270.656  0.00  0.00     0.300 C 
BRANCH  14  15
HETATM   15  C           1     175.176 182.692 270.745  0.00  0.00     0.301 C 
BRANCH  15  16
HETATM   16  N           1     175.934 183.026 269.570  0.00  0.00     0.081 N 
HETATM   17  C           1     175.007 183.472 268.564  0.00  0.00     0.309 C 
HETATM   18  C           1     176.787 184.135 269.901  0.00  0.00     0.309 C 
ENDBRANCH  15  16
ENDBRANCH  14  15
ENDBRANCH  12  14
ENDBRANCH  11  12
ENDBRANCH   9  11
BRANCH   8  19
HETATM   19  S           1     174.874 187.303 270.791  0.00  0.00    -0.105 SA
BRANCH  19  20
HETATM   20  C           1     173.745 188.516 271.532  0.00  0.00     0.119 C 
BRANCH  20  21
HETATM   21  C           1     174.299 189.895 271.345  0.00  0.00    -0.049 A 
HETATM   22  C           1     175.460 190.083 270.595  0.00  0.00     0.008 A 
HETATM   23  C           1     175.977 191.367 270.421  0.00  0.00     0.001 A 
HETATM   24  C           1     175.331 192.462 270.996  0.00  0.00     0.000 A 
HETATM   25  C           1     174.170 192.274 271.746  0.00  0.00     0.001 A 
HETATM   26  C           1     173.654 190.989 271.921  0.00  0.00     0.008 A 
ENDBRANCH  20  21
ENDBRANCH  19  20
ENDBRANCH   8  19
TORSDOF 8
ENDMDL
MODEL 5
REMARK VINA RESULT:      -6.4     13.357     18.725
REMARK  8 active torsions:
REMARK  status: ('A' for Active; 'I' for Inactive)
REMARK    1  A    between atoms: C_8  and  S_12 
REMARK    2  A    between atoms: C_9  and  C_11 
REMARK    3  A    between atoms: C_11  and  N_20 
REMARK    4  A    between atoms: S_12  and  C_13 
REMARK    5  A    between atoms: C_13  and  C_14 
REMARK    6  A    between atoms: N_20  and  C_21 
REMARK    7  A    between atoms: C_21  and  C_22 
REMARK    8  A    between atoms: C_22  and  N_23 
ROOT
HETATM    1  C           1     173.894 190.152 268.124  0.00  0.00     0.001 A 
HETATM    2  C           1     173.768 190.315 269.498  0.00  0.00     0.002 A 
HETATM    3  C           1     174.101 189.264 270.358  0.00  0.00     0.032 A 
HETATM    4  C           1     174.560 188.043 269.876  0.00  0.00     0.068 A 
HETATM    5  C           1     174.686 187.883 268.480  0.00  0.00    -0.007 A 
HETATM    6  C           1     174.352 188.939 267.613  0.00  0.00     0.014 A 
HETATM    7  N           1     174.867 187.062 270.744  0.00  0.00    -0.241 NA
HETATM    8  C           1     175.310 185.888 270.242  0.00  0.00     0.102 A 
HETATM    9  C           1     175.466 185.636 268.893  0.00  0.00     0.006 A 
HETATM   10  C           1     175.148 186.652 267.998  0.00  0.00     0.025 A 
ENDROOT
BRANCH   9  11
HETATM   11  C           1     175.963 184.310 268.408  0.00  0.00     0.311 C 
BRANCH  11  12
HETATM   12  N           1     176.863 184.510 267.303  0.00  0.00     0.089 N 
HETATM   13  H           1     176.821 185.484 267.003  0.00  0.00     0.316 HD
BRANCH  12  14
HETATM   14  C           1     176.431 183.658 266.229  0.00  0.00     0.300 C 
BRANCH  14  15
HETATM   15  C           1     176.128 184.505 264.999  0.00  0.00     0.301 C 
BRANCH  15  16
HETATM   16  N           1     174.896 184.062 264.403  0.00  0.00     0.081 N 
HETATM   17  C           1     173.824 184.442 265.283  0.00  0.00     0.309 C 
HETATM   18  C           1     174.724 184.781 263.169  0.00  0.00     0.309 C 
ENDBRANCH  15  16
ENDBRANCH  14  15
ENDBRANCH  12  14
ENDBRANCH  11  12
ENDBRANCH   9  11
BRANCH   8  19
HETATM   19  S           1     175.725 184.563 271.410  0.00  0.00    -0.105 SA
BRANCH  19  20
HETATM   20  C           1     174.911 185.375 272.815  0.00  0.00     0.119 C 
BRANCH  20  21
HETATM   21  C           1     175.889 185.528 273.939  0.00  0.00    -0.049 A 
HETATM   22  C           1     177.080 186.224 273.736  0.00  0.00     0.008 A 
HETATM   23  C           1     177.991 186.367 274.783  0.00  0.00     0.001 A 
HETATM   24  C           1     177.710 185.813 276.032  0.00  0.00     0.000 A 
HETATM   25  C           1     176.519 185.117 276.235  0.00  0.00     0.001 A 
HETATM   26  C           1     175.608 184.973 275.188  0.00  0.00     0.008 A 
ENDBRANCH  20  21
ENDBRANCH  19  20
ENDBRANCH   8  19
TORSDOF 8
ENDMDL
MODEL 6
REMARK VINA RESULT:      -6.3      2.007      6.108
REMARK  8 active torsions:
REMARK  status: ('A' for Active; 'I' for Inactive)
REMARK    1  A    between atoms: C_8  and  S_12 
REMARK    2  A    between atoms: C_9  and  C_11 
REMARK    3  A    between atoms: C_11  and  N_20 
REMARK    4  A    between atoms: S_12  and  C_13 
REMARK    5  A    between atoms: C_13  and  C_14 
REMARK    6  A    between atoms: N_20  and  C_21 
REMARK    7  A    between atoms: C_21  and  C_22 
REMARK    8  A    between atoms: C_22  and  N_23 
ROOT
HETATM    1  C           1     173.748 184.858 291.472  0.00  0.00     0.001 A 
HETATM    2  C           1     172.480 185.113 291.982  0.00  0.00     0.002 A 
HETATM    3  C           1     171.558 185.840 291.223  0.00  0.00     0.032 A 
HETATM    4  C           1     171.871 186.323 289.959  0.00  0.00     0.068 A 
HETATM    5  C           1     173.159 186.062 289.446  0.00  0.00    -0.007 A 
HETATM    6  C           1     174.090 185.331 290.206  0.00  0.00     0.014 A 
HETATM    7  N           1     170.949 187.018 289.268  0.00  0.00    -0.241 NA
HETATM    8  C           1     171.286 187.474 288.041  0.00  0.00     0.102 A 
HETATM    9  C           1     172.521 187.269 287.455  0.00  0.00     0.006 A 
HETATM   10  C           1     173.472 186.551 288.171  0.00  0.00     0.025 A 
ENDROOT
BRANCH   9  11
HETATM   11  C           1     172.825 187.804 286.091  0.00  0.00     0.311 C 
BRANCH  11  12
HETATM   12  N           1     172.803 186.727 285.138  0.00  0.00     0.089 N 
HETATM   13  H           1     172.926 185.840 285.626  0.00  0.00     0.316 HD
BRANCH  12  14
HETATM   14  C           1     173.897 186.928 284.226  0.00  0.00     0.300 C 
BRANCH  14  15
HETATM   15  C           1     174.913 185.805 284.395  0.00  0.00     0.301 C 
BRANCH  15  16
HETATM   16  N           1     175.351 185.356 283.101  0.00  0.00     0.081 N 
HETATM   17  C           1     174.356 184.450 282.594  0.00  0.00     0.309 C 
HETATM   18  C           1     175.385 186.500 282.230  0.00  0.00     0.309 C 
ENDBRANCH  15  16
ENDBRANCH  14  15
ENDBRANCH  12  14
ENDBRANCH  11  12
ENDBRANCH   9  11
BRANCH   8  19
HETATM   19  S           1     170.044 188.411 287.108  0.00  0.00    -0.105 SA
BRANCH  19  20
HETATM   20  C           1     168.875 188.487 288.495  0.00  0.00     0.119 C 
BRANCH  20  21
HETATM   21  C           1     167.596 187.811 288.107  0.00  0.00    -0.049 A 
HETATM   22  C           1     166.514 188.570 287.661  0.00  0.00     0.008 A 
HETATM   23  C           1     165.322 187.941 287.300  0.00  0.00     0.001 A 
HETATM   24  C           1     165.214 186.552 287.384  0.00  0.00     0.000 A 
HETATM   25  C           1     166.296 185.793 287.830  0.00  0.00     0.001 A 
HETATM   26  C           1     167.487 186.423 288.192  0.00  0.00     0.008 A 
ENDBRANCH  20  21
ENDBRANCH  19  20
ENDBRANCH   8  19
TORSDOF 8
ENDMDL
MODEL 7
REMARK VINA RESULT:      -6.3     13.314     17.708
REMARK  8 active torsions:
REMARK  status: ('A' for Active; 'I' for Inactive)
REMARK    1  A    between atoms: C_8  and  S_12 
REMARK    2  A    between atoms: C_9  and  C_11 
REMARK    3  A    between atoms: C_11  and  N_20 
REMARK    4  A    between atoms: S_12  and  C_13 
REMARK    5  A    between atoms: C_13  and  C_14 
REMARK    6  A    between atoms: N_20  and  C_21 
REMARK    7  A    between atoms: C_21  and  C_22 
REMARK    8  A    between atoms: C_22  and  N_23 
ROOT
HETATM    1  C           1     176.097 182.316 267.480  0.00  0.00     0.001 A 
HETATM    2  C           1     175.940 181.738 268.734  0.00  0.00     0.002 A 
HETATM    3  C           1     175.642 182.542 269.839  0.00  0.00     0.032 A 
HETATM    4  C           1     175.495 183.919 269.723  0.00  0.00     0.068 A 
HETATM    5  C           1     175.656 184.500 268.447  0.00  0.00    -0.007 A 
HETATM    6  C           1     175.957 183.695 267.334  0.00  0.00     0.014 A 
HETATM    7  N           1     175.208 184.649 270.815  0.00  0.00    -0.241 NA
HETATM    8  C           1     175.072 185.985 270.666  0.00  0.00     0.102 A 
HETATM    9  C           1     175.211 186.645 269.461  0.00  0.00     0.006 A 
HETATM   10  C           1     175.508 185.888 268.333  0.00  0.00     0.025 A 
ENDROOT
BRANCH   9  11
HETATM   11  C           1     175.046 188.130 269.370  0.00  0.00     0.311 C 
BRANCH  11  12
HETATM   12  N           1     175.589 188.598 268.123  0.00  0.00     0.089 N 
HETATM   13  H           1     176.553 188.900 268.264  0.00  0.00     0.316 HD
BRANCH  12  14
HETATM   14  C           1     174.794 189.716 267.693  0.00  0.00     0.300 C 
BRANCH  14  15
HETATM   15  C           1     173.730 190.018 268.742  0.00  0.00     0.301 C 
BRANCH  15  16
HETATM   16  N           1     172.498 190.368 268.089  0.00  0.00     0.081 N 
HETATM   17  C           1     171.866 189.148 267.664  0.00  0.00     0.309 C 
HETATM   18  C           1     171.645 190.985 269.068  0.00  0.00     0.309 C 
ENDBRANCH  15  16
ENDBRANCH  14  15
ENDBRANCH  12  14
ENDBRANCH  11  12
ENDBRANCH   9  11
BRANCH   8  19
HETATM   19  S           1     174.685 186.972 272.139  0.00  0.00    -0.105 SA
BRANCH  19  20
HETATM   20  C           1     174.645 185.535 273.247  0.00  0.00     0.119 C 
BRANCH  20  21
HETATM   21  C           1     175.789 185.616 274.211  0.00  0.00    -0.049 A 
HETATM   22  C           1     176.937 186.330 273.871  0.00  0.00     0.008 A 
HETATM   23  C           1     178.002 186.405 274.769  0.00  0.00     0.001 A 
HETATM   24  C           1     177.918 185.766 276.006  0.00  0.00     0.000 A 
HETATM   25  C           1     176.770 185.052 276.346  0.00  0.00     0.001 A 
HETATM   26  C           1     175.704 184.976 275.447  0.00  0.00     0.008 A 
ENDBRANCH  20  21
ENDBRANCH  19  20
ENDBRANCH   8  19
TORSDOF 8
ENDMDL
MODEL 8
REMARK VINA RESULT:      -6.1      1.799      5.933
REMARK  8 active torsions:
REMARK  status: ('A' for Active; 'I' for Inactive)
REMARK    1  A    between atoms: C_8  and  S_12 
REMARK    2  A    between atoms: C_9  and  C_11 
REMARK    3  A    between atoms: C_11  and  N_20 
REMARK    4  A    between atoms: S_12  and  C_13 
REMARK    5  A    between atoms: C_13  and  C_14 
REMARK    6  A    between atoms: N_20  and  C_21 
REMARK    7  A    between atoms: C_21  and  C_22 
REMARK    8  A    between atoms: C_22  and  N_23 
ROOT
HETATM    1  C           1     173.933 185.230 290.915  0.00  0.00     0.001 A 
HETATM    2  C           1     172.970 185.725 291.787  0.00  0.00     0.002 A 
HETATM    3  C           1     171.933 186.524 291.296  0.00  0.00     0.032 A 
HETATM    4  C           1     171.832 186.845 289.948  0.00  0.00     0.068 A 
HETATM    5  C           1     172.814 186.340 289.068  0.00  0.00    -0.007 A 
HETATM    6  C           1     173.858 185.536 289.558  0.00  0.00     0.014 A 
HETATM    7  N           1     170.816 187.618 289.525  0.00  0.00    -0.241 NA
HETATM    8  C           1     170.748 187.911 288.207  0.00  0.00     0.102 A 
HETATM    9  C           1     171.660 187.465 287.270  0.00  0.00     0.006 A 
HETATM   10  C           1     172.709 186.666 287.710  0.00  0.00     0.025 A 
ENDROOT
BRANCH   9  11
HETATM   11  C           1     171.522 187.829 285.825  0.00  0.00     0.311 C 
BRANCH  11  12
HETATM   12  N           1     172.784 187.644 285.162  0.00  0.00     0.089 N 
HETATM   13  H           1     173.218 188.552 284.997  0.00  0.00     0.316 HD
BRANCH  12  14
HETATM   14  C           1     172.525 187.001 283.902  0.00  0.00     0.300 C 
BRANCH  14  15
HETATM   15  C           1     172.780 185.504 284.033  0.00  0.00     0.301 C 
BRANCH  15  16
HETATM   16  N           1     173.632 185.067 282.960  0.00  0.00     0.081 N 
HETATM   17  C           1     173.435 185.963 281.852  0.00  0.00     0.309 C 
HETATM   18  C           1     174.994 185.208 283.398  0.00  0.00     0.309 C 
ENDBRANCH  15  16
ENDBRANCH  14  15
ENDBRANCH  12  14
ENDBRANCH  11  12
ENDBRANCH   9  11
BRANCH   8  19
HETATM   19  S           1     169.378 188.954 287.635  0.00  0.00    -0.105 SA
BRANCH  19  20
HETATM   20  C           1     168.134 187.645 287.827  0.00  0.00     0.119 C 
BRANCH  20  21
HETATM   21  C           1     167.863 187.424 289.283  0.00  0.00    -0.049 A 
HETATM   22  C           1     168.054 186.161 289.843  0.00  0.00     0.008 A 
HETATM   23  C           1     167.801 185.954 291.199  0.00  0.00     0.001 A 
HETATM   24  C           1     167.359 187.011 291.995  0.00  0.00     0.000 A 
HETATM   25  C           1     167.168 188.274 291.435  0.00  0.00     0.001 A 
HETATM   26  C           1     167.420 188.480 290.078  0.00  0.00     0.008 A 
ENDBRANCH  20  21
ENDBRANCH  19  20
ENDBRANCH   8  19
TORSDOF 8
ENDMDL
MODEL 9
REMARK VINA RESULT:      -6.1     13.413     18.531
REMARK  8 active torsions:
REMARK  status: ('A' for Active; 'I' for Inactive)
REMARK    1  A    between atoms: C_8  and  S_12 
REMARK    2  A    between atoms: C_9  and  C_11 
REMARK    3  A    between atoms: C_11  and  N_20 
REMARK    4  A    between atoms: S_12  and  C_13 
REMARK    5  A    between atoms: C_13  and  C_14 
REMARK    6  A    between atoms: N_20  and  C_21 
REMARK    7  A    between atoms: C_21  and  C_22 
REMARK    8  A    between atoms: C_22  and  N_23 
ROOT
HETATM    1  C           1     173.013 190.458 268.197  0.00  0.00     0.001 A 
HETATM    2  C           1     173.026 190.609 269.579  0.00  0.00     0.002 A 
HETATM    3  C           1     173.572 189.604 270.383  0.00  0.00     0.032 A 
HETATM    4  C           1     174.108 188.442 269.840  0.00  0.00     0.068 A 
HETATM    5  C           1     174.091 188.295 268.436  0.00  0.00    -0.007 A 
HETATM    6  C           1     173.543 189.304 267.624  0.00  0.00     0.014 A 
HETATM    7  N           1     174.621 187.504 270.656  0.00  0.00    -0.241 NA
HETATM    8  C           1     175.134 186.387 270.094  0.00  0.00     0.102 A 
HETATM    9  C           1     175.162 186.152 268.733  0.00  0.00     0.006 A 
HETATM   10  C           1     174.632 187.124 267.891  0.00  0.00     0.025 A 
ENDROOT
BRANCH   9  11
HETATM   11  C           1     175.747 184.890 268.180  0.00  0.00     0.311 C 
BRANCH  11  12
HETATM   12  N           1     176.940 185.200 267.438  0.00  0.00     0.089 N 
HETATM   13  H           1     176.754 185.977 266.805  0.00  0.00     0.316 HD
BRANCH  12  14
HETATM   14  C           1     177.294 184.034 266.674  0.00  0.00     0.300 C 
BRANCH  14  15
HETATM   15  C           1     176.167 183.011 266.755  0.00  0.00     0.301 C 
BRANCH  15  16
HETATM   16  N           1     176.300 182.065 265.680  0.00  0.00     0.081 N 
HETATM   17  C           1     177.479 182.413 264.934  0.00  0.00     0.309 C 
HETATM   18  C           1     176.518 180.769 266.264  0.00  0.00     0.309 C 
ENDBRANCH  15  16
ENDBRANCH  14  15
ENDBRANCH  12  14
ENDBRANCH  11  12
ENDBRANCH   9  11
BRANCH   8  19
HETATM   19  S           1     175.826 185.120 271.193  0.00  0.00    -0.105 SA
BRANCH  19  20
HETATM   20  C           1     174.944 185.728 272.658  0.00  0.00     0.119 C 
BRANCH  20  21
HETATM   21  C           1     175.866 185.714 273.838  0.00  0.00    -0.049 A 
HETATM   22  C           1     175.473 185.091 275.022  0.00  0.00     0.008 A 
HETATM   23  C           1     176.332 185.078 276.122  0.00  0.00     0.001 A 
HETATM   24  C           1     177.584 185.687 276.035  0.00  0.00     0.000 A 
HETATM   25  C           1     177.977 186.310 274.851  0.00  0.00     0.001 A 
HETATM   26  C           1     177.117 186.324 273.752  0.00  0.00     0.008 A 
ENDBRANCH  20  21
ENDBRANCH  19  20
ENDBRANCH   8  19
TORSDOF 8
ENDMDL
