REMARK  7 active torsions:
REMARK  status: ('A' for Active; 'I' for Inactive)
REMARK    1  A    between atoms: C_8  and  S_26 
REMARK    2  A    between atoms: C_9  and  C_11 
REMARK    3  A    between atoms: C_11  and  N_12 
REMARK    4  A    between atoms: N_12  and  C_13 
REMARK    5  A    between atoms: C_13  and  C_14 
REMARK    6  A    between atoms: C_14  and  C_15 
REMARK    7  A    between atoms: N_18  and  C_21 
ROOT
HETATM    1  N           1      -0.363  -2.018  -0.455  0.00  0.00     0.087 N 
HETATM    2  H           1       0.301  -2.397   0.219  0.00  0.00     0.316 HD
ENDROOT
BRANCH   1   3
HETATM    3  C           1      -1.515  -2.876  -0.528  0.00  0.00     0.311 C 
BRANCH   3   4
HETATM    4  C           1      -1.096  -4.238  -0.984  0.00  0.00     0.006 A 
HETATM    5  C           1       0.228  -4.519  -1.267  0.00  0.00     0.101 A 
HETATM    6  N           1       0.672  -5.725  -1.682  0.00  0.00    -0.241 NA
HETATM    7  C           1      -0.230  -6.713  -1.830  0.00  0.00     0.068 A 
HETATM    8  C           1       0.191  -7.966  -2.255  0.00  0.00     0.032 A 
HETATM    9  C           1      -1.604  -6.526  -1.567  0.00  0.00    -0.007 A 
HETATM   10  C           1      -0.706  -9.025  -2.424  0.00  0.00     0.002 A 
HETATM   11  C           1      -2.059  -8.836  -2.164  0.00  0.00     0.001 A 
HETATM   12  C           1      -2.509  -7.589  -1.735  0.00  0.00     0.014 A 
HETATM   13  C           1      -2.025  -5.260  -1.138  0.00  0.00     0.025 A 
BRANCH   5  14
HETATM   14  S           1       1.443  -3.185  -1.067  0.00  0.00    -0.114 SA
HETATM   15  C           1       2.847  -4.216  -1.578  0.00  0.00     0.097 C 
ENDBRANCH   5  14
ENDBRANCH   3   4
ENDBRANCH   1   3
BRANCH   1  16
HETATM   16  C           1      -0.809  -0.724  -0.014  0.00  0.00     0.270 C 
BRANCH  16  17
HETATM   17  C           1       0.382   0.220   0.077  0.00  0.00     0.034 C 
BRANCH  17  18
HETATM   18  C           1      -0.090   1.591   0.544  0.00  0.00    -0.010 C 
HETATM   19  C           1       0.603   1.939   1.857  0.00  0.00     0.035 C 
HETATM   20  C           1       0.316   3.381   2.270  0.00  0.00     0.273 C 
HETATM   21  N           1       0.685   4.324   1.214  0.00  0.00     0.093 N 
HETATM   22  C           1      -0.034   4.044  -0.029  0.00  0.00     0.273 C 
HETATM   23  C           1       0.241   2.626  -0.527  0.00  0.00     0.035 C 
BRANCH  21  24
HETATM   24  C           1       0.270   5.621   1.677  0.00  0.00     0.223 C 
HETATM   25  C           1       1.384   6.302   2.458  0.00  0.00     0.036 C 
HETATM   26  C           1       1.168   7.801   2.253  0.00  0.00     0.002 C 
HETATM   27  C           1       0.116   7.938   1.155  0.00  0.00     0.002 C 
HETATM   28  C           1       0.032   6.564   0.510  0.00  0.00     0.036 C 
ENDBRANCH  21  24
ENDBRANCH  17  18
ENDBRANCH  16  17
ENDBRANCH   1  16
TORSDOF 7
