REMARK  8 active torsions:
REMARK  status: ('A' for Active; 'I' for Inactive)
REMARK    1  A    between atoms: C_8  and  S_20 
REMARK    2  A    between atoms: C_9  and  C_11 
REMARK    3  A    between atoms: C_11  and  N_12 
REMARK    4  A    between atoms: N_12  and  C_13 
REMARK    5  A    between atoms: C_13  and  C_14 
REMARK    6  A    between atoms: C_14  and  C_15 
REMARK    7  A    between atoms: S_20  and  C_21 
REMARK    8  A    between atoms: C_21  and  C_22 
ROOT
HETATM    1  C           1      -2.885  -5.884  -1.276  0.00  0.00     0.001 A 
HETATM    2  C           1      -1.532  -6.074  -1.536  0.00  0.00     0.002 A 
HETATM    3  C           1      -0.635  -5.014  -1.367  0.00  0.00     0.032 A 
HETATM    4  C           1      -1.056  -3.761  -0.942  0.00  0.00     0.068 A 
HETATM    5  C           1      -2.430  -3.574  -0.679  0.00  0.00    -0.007 A 
HETATM    6  C           1      -3.335  -4.637  -0.848  0.00  0.00     0.014 A 
HETATM    7  N           1      -0.154  -2.774  -0.794  0.00  0.00    -0.241 NA
HETATM    8  C           1      -0.598  -1.567  -0.379  0.00  0.00     0.102 A 
HETATM    9  C           1      -1.922  -1.287  -0.097  0.00  0.00     0.006 A 
HETATM   10  C           1      -2.851  -2.308  -0.250  0.00  0.00     0.025 A 
ENDROOT
BRANCH   9  11
HETATM   11  C           1      -2.341   0.076   0.360  0.00  0.00     0.311 C 
BRANCH  11  12
HETATM   12  N           1      -1.189   0.933   0.432  0.00  0.00     0.087 N 
HETATM   13  H           1      -0.525   0.555   1.107  0.00  0.00     0.316 HD
BRANCH  12  14
HETATM   14  C           1      -1.635   2.228   0.873  0.00  0.00     0.276 C 
BRANCH  14  15
HETATM   15  C           1      -0.444   3.172   0.964  0.00  0.00     0.088 C 
BRANCH  15  16
HETATM   16  C           1      -0.908   4.519   1.423  0.00  0.00     0.029 A 
HETATM   17  C           1      -0.142   5.642   1.631  0.00  0.00     0.143 A 
HETATM   18  N           1      -0.921   6.689   2.051  0.00  0.00    -0.254 NA
HETATM   19  C           1      -2.144   6.214   2.100  0.00  0.00     0.207 A 
HETATM   20  N           1      -2.185   4.900   1.728  0.00  0.00    -0.353 N 
HETATM   21  H           1      -3.041   4.294   1.683  0.00  0.00     0.166 HD
ENDBRANCH  15  16
ENDBRANCH  14  15
ENDBRANCH  12  14
ENDBRANCH  11  12
ENDBRANCH   9  11
BRANCH   8  22
HETATM   22  S           1       0.617  -0.234  -0.180  0.00  0.00    -0.105 SA
BRANCH  22  23
HETATM   23  C           1       2.021  -1.265  -0.690  0.00  0.00     0.119 C 
BRANCH  23  24
HETATM   24  C           1       3.278  -0.453  -0.648  0.00  0.00    -0.049 A 
HETATM   25  C           1       4.496  -1.035  -1.001  0.00  0.00     0.008 A 
HETATM   26  C           1       5.667  -0.278  -0.961  0.00  0.00     0.001 A 
HETATM   27  C           1       5.621   1.059  -0.568  0.00  0.00     0.000 A 
HETATM   28  C           1       4.403   1.641  -0.215  0.00  0.00     0.001 A 
HETATM   29  C           1       3.232   0.885  -0.255  0.00  0.00     0.008 A 
ENDBRANCH  23  24
ENDBRANCH  22  23
ENDBRANCH   8  22
TORSDOF 8
