REMARK  6 active torsions:
REMARK  status: ('A' for Active; 'I' for Inactive)
REMARK    1  A    between atoms: C_8  and  S_21 
REMARK    2  A    between atoms: C_9  and  C_11 
REMARK    3  A    between atoms: C_11  and  N_12 
REMARK    4  A    between atoms: N_12  and  C_13 
REMARK    5  A    between atoms: C_13  and  C_14 
REMARK    6  A    between atoms: C_14  and  C_15 
ROOT
HETATM    1  C           1      -1.485  -6.189  -1.579  0.00  0.00     0.001 A 
HETATM    2  C           1      -0.132  -6.379  -1.840  0.00  0.00     0.002 A 
HETATM    3  C           1       0.765  -5.319  -1.671  0.00  0.00     0.032 A 
HETATM    4  C           1       0.344  -4.066  -1.245  0.00  0.00     0.068 A 
HETATM    5  C           1      -1.030  -3.879  -0.983  0.00  0.00    -0.007 A 
HETATM    6  C           1      -1.935  -4.942  -1.151  0.00  0.00     0.014 A 
HETATM    7  N           1       1.246  -3.079  -1.098  0.00  0.00    -0.241 NA
HETATM    8  C           1       0.802  -1.872  -0.683  0.00  0.00     0.101 A 
HETATM    9  C           1      -0.522  -1.592  -0.400  0.00  0.00     0.006 A 
HETATM   10  C           1      -1.451  -2.613  -0.554  0.00  0.00     0.025 A 
ENDROOT
BRANCH   9  11
HETATM   11  C           1      -0.941  -0.229   0.056  0.00  0.00     0.311 C 
BRANCH  11  12
HETATM   12  N           1       0.211   0.628   0.129  0.00  0.00     0.087 N 
HETATM   13  H           1       0.875   0.250   0.803  0.00  0.00     0.316 HD
BRANCH  12  14
HETATM   14  C           1      -0.235   1.923   0.570  0.00  0.00     0.276 C 
BRANCH  14  15
HETATM   15  C           1       0.956   2.867   0.661  0.00  0.00     0.087 C 
BRANCH  15  16
HETATM   16  C           1       0.492   4.214   1.120  0.00  0.00     0.012 A 
HETATM   17  C           1       1.288   5.320   1.318  0.00  0.00     0.026 A 
HETATM   18  C           1       0.447   6.373   1.749  0.00  0.00     0.019 A 
HETATM   19  C           1      -0.837   5.878   1.802  0.00  0.00     0.090 A 
HETATM   20  N           1      -0.799   4.563   1.417  0.00  0.00    -0.364 N 
HETATM   21  C           1      -1.962   3.668   1.336  0.00  0.00     0.155 C 
ENDBRANCH  15  16
ENDBRANCH  14  15
ENDBRANCH  12  14
ENDBRANCH  11  12
ENDBRANCH   9  11
BRANCH   8  22
HETATM   22  S           1       2.017  -0.539  -0.483  0.00  0.00    -0.114 SA
HETATM   23  C           1       3.421  -1.570  -0.994  0.00  0.00     0.097 C 
ENDBRANCH   8  22
TORSDOF 6
