REMARK  6 active torsions:
REMARK  status: ('A' for Active; 'I' for Inactive)
REMARK    1  A    between atoms: C_8  and  S_23 
REMARK    2  A    between atoms: C_9  and  C_11 
REMARK    3  A    between atoms: C_11  and  N_12 
REMARK    4  A    between atoms: N_12  and  C_13 
REMARK    5  A    between atoms: C_13  and  C_14 
REMARK    6  A    between atoms: C_17  and  N_20 
ROOT
HETATM    1  C           1      -2.332  -0.696   0.135  0.00  0.00     0.311 C 
ENDROOT
BRANCH   1   2
HETATM    2  C           1      -1.913  -2.059  -0.322  0.00  0.00     0.006 A 
HETATM    3  C           1      -0.589  -2.339  -0.604  0.00  0.00     0.101 A 
HETATM    4  N           1      -0.145  -3.546  -1.019  0.00  0.00    -0.241 NA
HETATM    5  C           1      -1.047  -4.533  -1.167  0.00  0.00     0.068 A 
HETATM    6  C           1      -0.626  -5.786  -1.592  0.00  0.00     0.032 A 
HETATM    7  C           1      -2.421  -4.346  -0.904  0.00  0.00    -0.007 A 
HETATM    8  C           1      -1.523  -6.846  -1.761  0.00  0.00     0.002 A 
HETATM    9  C           1      -2.876  -6.656  -1.501  0.00  0.00     0.001 A 
HETATM   10  C           1      -3.326  -5.409  -1.073  0.00  0.00     0.014 A 
HETATM   11  C           1      -2.842  -3.080  -0.475  0.00  0.00     0.025 A 
BRANCH   3  12
HETATM   12  S           1       0.626  -1.006  -0.404  0.00  0.00    -0.114 SA
HETATM   13  C           1       2.030  -2.036  -0.915  0.00  0.00     0.097 C 
ENDBRANCH   3  12
ENDBRANCH   1   2
BRANCH   1  14
HETATM   14  N           1      -1.180   0.162   0.207  0.00  0.00     0.091 N 
HETATM   15  H           1      -0.516  -0.217   0.882  0.00  0.00     0.316 HD
BRANCH  14  16
HETATM   16  C           1      -1.626   1.456   0.648  0.00  0.00     0.308 C 
BRANCH  16  17
HETATM   17  C           1      -0.455   2.384   0.738  0.00  0.00    -0.030 A 
HETATM   18  C           1      -0.551   3.559   1.484  0.00  0.00     0.011 A 
HETATM   19  C           1       0.540   4.423   1.567  0.00  0.00     0.030 A 
HETATM   20  C           1       1.727   4.114   0.905  0.00  0.00     0.029 A 
HETATM   21  C           1       1.824   2.939   0.159  0.00  0.00     0.030 A 
HETATM   22  C           1       0.733   2.074   0.075  0.00  0.00     0.011 A 
BRANCH  20  23
HETATM   23  N           1       2.718   4.898   0.980  0.00  0.00    -0.390 N 
HETATM   24  C           1       3.970   4.572   0.282  0.00  0.00     0.149 C 
HETATM   25  C           1       2.616   6.136   1.766  0.00  0.00     0.149 C 
ENDBRANCH  20  23
ENDBRANCH  16  17
ENDBRANCH  14  16
ENDBRANCH   1  14
TORSDOF 6
