REMARK  7 active torsions:
REMARK  status: ('A' for Active; 'I' for Inactive)
REMARK    1  A    between atoms: C_8  and  S_19 
REMARK    2  A    between atoms: C_9  and  C_11 
REMARK    3  A    between atoms: C_11  and  N_12 
REMARK    4  A    between atoms: N_12  and  C_13 
REMARK    5  A    between atoms: C_13  and  C_14 
REMARK    6  A    between atoms: C_14  and  C_15 
REMARK    7  A    between atoms: C_15  and  N_16 
ROOT
HETATM    1  C           1      -2.028  -6.266  -1.663  0.00  0.00     0.001 A 
HETATM    2  C           1      -0.675  -6.456  -1.923  0.00  0.00     0.002 A 
HETATM    3  C           1       0.222  -5.396  -1.754  0.00  0.00     0.032 A 
HETATM    4  C           1      -0.199  -4.143  -1.329  0.00  0.00     0.068 A 
HETATM    5  C           1      -1.573  -3.956  -1.066  0.00  0.00    -0.007 A 
HETATM    6  C           1      -2.478  -5.019  -1.235  0.00  0.00     0.014 A 
HETATM    7  N           1       0.703  -3.156  -1.181  0.00  0.00    -0.241 NA
HETATM    8  C           1       0.259  -1.949  -0.766  0.00  0.00     0.101 A 
HETATM    9  C           1      -1.065  -1.669  -0.484  0.00  0.00     0.006 A 
HETATM   10  C           1      -1.994  -2.690  -0.637  0.00  0.00     0.025 A 
ENDROOT
BRANCH   9  11
HETATM   11  C           1      -1.484  -0.307  -0.027  0.00  0.00     0.311 C 
BRANCH  11  12
HETATM   12  N           1      -0.332   0.551   0.045  0.00  0.00     0.087 N 
HETATM   13  H           1       0.332   0.172   0.720  0.00  0.00     0.316 HD
BRANCH  12  14
HETATM   14  C           1      -0.778   1.845   0.486  0.00  0.00     0.272 C 
BRANCH  14  15
HETATM   15  C           1       0.414   2.790   0.577  0.00  0.00     0.060 C 
BRANCH  15  16
HETATM   16  C           1      -0.059   4.160   1.044  0.00  0.00     0.273 C 
BRANCH  16  17
HETATM   17  N           1       1.066   5.052   1.130  0.00  0.00     0.080 N 
HETATM   18  C           1       0.579   6.330   1.573  0.00  0.00     0.309 C 
HETATM   19  C           1       1.949   4.545   2.146  0.00  0.00     0.309 C 
ENDBRANCH  16  17
ENDBRANCH  15  16
ENDBRANCH  14  15
ENDBRANCH  12  14
ENDBRANCH  11  12
ENDBRANCH   9  11
BRANCH   8  20
HETATM   20  S           1       1.474  -0.616  -0.567  0.00  0.00    -0.114 SA
HETATM   21  C           1       2.878  -1.647  -1.077  0.00  0.00     0.097 C 
ENDBRANCH   8  20
TORSDOF 7
