REMARK  8 active torsions:
REMARK  status: ('A' for Active; 'I' for Inactive)
REMARK    1  A    between atoms: C_8  and  S_16 
REMARK    2  A    between atoms: C_9  and  C_11 
REMARK    3  A    between atoms: C_11  and  N_12 
REMARK    4  A    between atoms: N_12  and  C_13 
REMARK    5  A    between atoms: C_13  and  C_14 
REMARK    6  A    between atoms: C_14  and  C_15 
REMARK    7  A    between atoms: S_16  and  C_17 
REMARK    8  A    between atoms: C_17  and  C_18 
ROOT
HETATM    1  C           1      -2.656  -6.846  -1.586  0.00  0.00     0.001 A 
HETATM    2  C           1      -1.304  -7.036  -1.846  0.00  0.00     0.002 A 
HETATM    3  C           1      -0.407  -5.976  -1.677  0.00  0.00     0.032 A 
HETATM    4  C           1      -0.827  -4.723  -1.252  0.00  0.00     0.068 A 
HETATM    5  C           1      -2.201  -4.536  -0.989  0.00  0.00    -0.007 A 
HETATM    6  C           1      -3.107  -5.599  -1.158  0.00  0.00     0.014 A 
HETATM    7  N           1       0.075  -3.736  -1.104  0.00  0.00    -0.241 NA
HETATM    8  C           1      -0.369  -2.529  -0.689  0.00  0.00     0.102 A 
HETATM    9  C           1      -1.693  -2.249  -0.407  0.00  0.00     0.006 A 
HETATM   10  C           1      -2.622  -3.270  -0.560  0.00  0.00     0.025 A 
ENDROOT
BRANCH   9  11
HETATM   11  C           1      -2.113  -0.886   0.050  0.00  0.00     0.311 C 
BRANCH  11  12
HETATM   12  N           1      -0.961  -0.028   0.122  0.00  0.00     0.088 N 
HETATM   13  H           1      -0.296  -0.407   0.797  0.00  0.00     0.316 HD
BRANCH  12  14
HETATM   14  C           1      -1.406   1.266   0.563  0.00  0.00     0.277 C 
BRANCH  14  15
HETATM   15  C           1      -0.215   2.210   0.654  0.00  0.00     0.110 C 
BRANCH  15  16
HETATM   16  C           1      -0.679   3.557   1.113  0.00  0.00     0.128 A 
HETATM   17  N           1       0.257   4.511   1.246  0.00  0.00    -0.238 NA
HETATM   18  C           1      -0.190   5.711   1.660  0.00  0.00     0.034 A 
HETATM   19  C           1       0.804   6.817   1.828  0.00  0.00     0.070 C 
HETATM   20  C           1      -1.512   5.976   1.938  0.00  0.00     0.053 A 
HETATM   21  C           1      -2.379   4.921   1.766  0.00  0.00     0.034 A 
HETATM   22  C           1      -3.831   5.145   2.051  0.00  0.00     0.070 C 
HETATM   23  N           1      -1.992   3.700   1.354  0.00  0.00    -0.238 NA
ENDBRANCH  15  16
ENDBRANCH  14  15
ENDBRANCH  12  14
ENDBRANCH  11  12
ENDBRANCH   9  11
BRANCH   8  24
HETATM   24  S           1       0.846  -1.196  -0.489  0.00  0.00    -0.105 SA
BRANCH  24  25
HETATM   25  C           1       2.250  -2.226  -1.000  0.00  0.00     0.119 C 
BRANCH  25  26
HETATM   26  C           1       3.507  -1.415  -0.958  0.00  0.00    -0.049 A 
HETATM   27  C           1       4.725  -1.996  -1.311  0.00  0.00     0.008 A 
HETATM   28  C           1       5.896  -1.240  -1.271  0.00  0.00     0.001 A 
HETATM   29  C           1       5.850   0.097  -0.878  0.00  0.00     0.000 A 
HETATM   30  C           1       4.632   0.679  -0.525  0.00  0.00     0.001 A 
HETATM   31  C           1       3.461  -0.077  -0.565  0.00  0.00     0.008 A 
ENDBRANCH  25  26
ENDBRANCH  24  25
ENDBRANCH   8  24
TORSDOF 8
