REMARK  9 active torsions:
REMARK  status: ('A' for Active; 'I' for Inactive)
REMARK    1  A    between atoms: C_8  and  S_16 
REMARK    2  A    between atoms: C_9  and  C_11 
REMARK    3  A    between atoms: C_11  and  N_12 
REMARK    4  A    between atoms: N_12  and  C_13 
REMARK    5  A    between atoms: C_13  and  C_14 
REMARK    6  A    between atoms: C_14  and  C_15 
REMARK    7  A    between atoms: C_15  and  N_24 
REMARK    8  A    between atoms: S_16  and  C_17 
REMARK    9  A    between atoms: C_17  and  C_18 
ROOT
HETATM    1  C           1      -3.097  -6.295  -1.478  0.00  0.00     0.001 A 
HETATM    2  C           1      -1.744  -6.485  -1.738  0.00  0.00     0.002 A 
HETATM    3  C           1      -0.847  -5.425  -1.569  0.00  0.00     0.032 A 
HETATM    4  C           1      -1.268  -4.172  -1.144  0.00  0.00     0.068 A 
HETATM    5  C           1      -2.642  -3.985  -0.881  0.00  0.00    -0.007 A 
HETATM    6  C           1      -3.547  -5.048  -1.049  0.00  0.00     0.014 A 
HETATM    7  N           1      -0.366  -3.185  -0.996  0.00  0.00    -0.241 NA
HETATM    8  C           1      -0.810  -1.978  -0.581  0.00  0.00     0.102 A 
HETATM    9  C           1      -2.134  -1.698  -0.298  0.00  0.00     0.006 A 
HETATM   10  C           1      -3.063  -2.719  -0.452  0.00  0.00     0.025 A 
ENDROOT
BRANCH   9  11
HETATM   11  C           1      -2.553  -0.335   0.158  0.00  0.00     0.311 C 
BRANCH  11  12
HETATM   12  N           1      -1.401   0.523   0.231  0.00  0.00     0.087 N 
HETATM   13  H           1      -0.737   0.144   0.905  0.00  0.00     0.316 HD
BRANCH  12  14
HETATM   14  C           1      -1.847   1.817   0.672  0.00  0.00     0.272 C 
BRANCH  14  15
HETATM   15  C           1      -0.655   2.761   0.763  0.00  0.00     0.060 C 
BRANCH  15  16
HETATM   16  C           1      -1.128   4.132   1.230  0.00  0.00     0.273 C 
BRANCH  16  17
HETATM   17  N           1      -0.003   5.023   1.316  0.00  0.00     0.080 N 
HETATM   18  C           1      -0.490   6.301   1.759  0.00  0.00     0.309 C 
HETATM   19  C           1       0.880   4.516   2.331  0.00  0.00     0.309 C 
ENDBRANCH  16  17
ENDBRANCH  15  16
ENDBRANCH  14  15
ENDBRANCH  12  14
ENDBRANCH  11  12
ENDBRANCH   9  11
BRANCH   8  20
HETATM   20  S           1       0.405  -0.645  -0.381  0.00  0.00    -0.105 SA
BRANCH  20  21
HETATM   21  C           1       1.809  -1.675  -0.892  0.00  0.00     0.119 C 
BRANCH  21  22
HETATM   22  C           1       3.066  -0.864  -0.849  0.00  0.00    -0.049 A 
HETATM   23  C           1       4.284  -1.445  -1.202  0.00  0.00     0.008 A 
HETATM   24  C           1       5.455  -0.689  -1.162  0.00  0.00     0.001 A 
HETATM   25  C           1       5.409   0.648  -0.770  0.00  0.00     0.000 A 
HETATM   26  C           1       4.192   1.230  -0.417  0.00  0.00     0.001 A 
HETATM   27  C           1       3.020   0.474  -0.457  0.00  0.00     0.008 A 
ENDBRANCH  21  22
ENDBRANCH  20  21
ENDBRANCH   8  20
TORSDOF 9
