REMARK  8 active torsions:
REMARK  status: ('A' for Active; 'I' for Inactive)
REMARK    1  A    between atoms: C_8  and  S_12 
REMARK    2  A    between atoms: C_9  and  C_11 
REMARK    3  A    between atoms: C_11  and  N_14 
REMARK    4  A    between atoms: N_14  and  C_15 
REMARK    5  A    between atoms: C_15  and  C_16 
REMARK    6  A    between atoms: C_16  and  C_17 
REMARK    7  A    between atoms: C_17  and  C_18 
REMARK    8  A    between atoms: C_18  and  N_19 
ROOT
HETATM    1  C           1      -2.041  -6.920  -1.570  0.00  0.00     0.001 A 
HETATM    2  C           1      -0.689  -7.109  -1.830  0.00  0.00     0.002 A 
HETATM    3  C           1       0.208  -6.050  -1.661  0.00  0.00     0.032 A 
HETATM    4  C           1      -0.212  -4.797  -1.236  0.00  0.00     0.068 A 
HETATM    5  C           1      -1.587  -4.610  -0.973  0.00  0.00    -0.007 A 
HETATM    6  C           1      -2.492  -5.673  -1.142  0.00  0.00     0.014 A 
HETATM    7  N           1       0.689  -3.809  -1.088  0.00  0.00    -0.241 NA
HETATM    8  C           1       0.245  -2.603  -0.673  0.00  0.00     0.101 A 
HETATM    9  C           1      -1.078  -2.322  -0.391  0.00  0.00     0.006 A 
HETATM   10  C           1      -2.007  -3.344  -0.544  0.00  0.00     0.025 A 
ENDROOT
BRANCH   9  11
HETATM   11  C           1      -1.498  -0.960   0.066  0.00  0.00     0.311 C 
BRANCH  11  12
HETATM   12  N           1      -0.346  -0.102   0.138  0.00  0.00     0.087 N 
HETATM   13  H           1       0.318  -0.481   0.813  0.00  0.00     0.316 HD
BRANCH  12  14
HETATM   14  C           1      -0.792   1.192   0.579  0.00  0.00     0.270 C 
BRANCH  14  15
HETATM   15  C           1       0.400   2.136   0.670  0.00  0.00     0.032 C 
BRANCH  15  16
HETATM   16  C           1      -0.072   3.507   1.138  0.00  0.00     0.032 C 
BRANCH  16  17
HETATM   17  C           1       1.119   4.451   1.229  0.00  0.00     0.271 C 
BRANCH  17  18
HETATM   18  N           1       0.674   5.745   1.670  0.00  0.00     0.080 N 
HETATM   19  C           1       1.825   6.603   1.742  0.00  0.00     0.309 C 
HETATM   20  C           1      -0.203   6.274   0.659  0.00  0.00     0.309 C 
ENDBRANCH  17  18
ENDBRANCH  16  17
ENDBRANCH  15  16
ENDBRANCH  14  15
ENDBRANCH  12  14
ENDBRANCH  11  12
ENDBRANCH   9  11
BRANCH   8  21
HETATM   21  S           1       1.460  -1.269  -0.473  0.00  0.00    -0.114 SA
HETATM   22  C           1       2.864  -2.300  -0.984  0.00  0.00     0.097 C 
ENDBRANCH   8  21
TORSDOF 8
