REMARK  11 active torsions:
REMARK  status: ('A' for Active; 'I' for Inactive)
REMARK    1  A    between atoms: C_8  and  S_22 
REMARK    2  A    between atoms: C_9  and  C_11 
REMARK    3  A    between atoms: C_11  and  N_12 
REMARK    4  A    between atoms: N_12  and  C_14 
REMARK    5  A    between atoms: C_14  and  C_15 
REMARK    6  A    between atoms: C_15  and  C_16 
REMARK    7  A    between atoms: C_16  and  C_17 
REMARK    8  A    between atoms: C_17  and  C_18 
REMARK    9  A    between atoms: C_18  and  N_19 
REMARK   10  A    between atoms: S_22  and  C_23 
REMARK   11  A    between atoms: C_23  and  C_24 
ROOT
HETATM    1  C           1      -3.189  -7.234  -1.721  0.00  0.00     0.001 A 
HETATM    2  C           1      -1.836  -7.424  -1.981  0.00  0.00     0.002 A 
HETATM    3  C           1      -0.939  -6.364  -1.812  0.00  0.00     0.032 A 
HETATM    4  C           1      -1.360  -5.111  -1.387  0.00  0.00     0.068 A 
HETATM    5  C           1      -2.734  -4.924  -1.124  0.00  0.00    -0.007 A 
HETATM    6  C           1      -3.639  -5.987  -1.293  0.00  0.00     0.014 A 
HETATM    7  N           1      -0.458  -4.124  -1.239  0.00  0.00    -0.241 NA
HETATM    8  C           1      -0.902  -2.917  -0.824  0.00  0.00     0.102 A 
HETATM    9  C           1      -2.226  -2.637  -0.542  0.00  0.00     0.006 A 
HETATM   10  C           1      -3.155  -3.658  -0.695  0.00  0.00     0.025 A 
ENDROOT
BRANCH   9  11
HETATM   11  C           1      -2.645  -1.274  -0.085  0.00  0.00     0.311 C 
BRANCH  11  12
HETATM   12  N           1      -1.494  -0.416  -0.013  0.00  0.00     0.087 N 
HETATM   13  H           1      -0.829  -0.795   0.662  0.00  0.00     0.316 HD
BRANCH  12  14
HETATM   14  C           1      -1.939   0.878   0.428  0.00  0.00     0.270 C 
BRANCH  14  15
HETATM   15  C           1      -0.748   1.822   0.519  0.00  0.00     0.030 C 
BRANCH  15  16
HETATM   16  C           1      -1.220   3.193   0.986  0.00  0.00     0.003 C 
BRANCH  16  17
HETATM   17  C           1      -0.028   4.137   1.078  0.00  0.00     0.030 C 
BRANCH  17  18
HETATM   18  C           1      -0.500   5.507   1.545  0.00  0.00     0.271 C 
BRANCH  18  19
HETATM   19  N           1       0.625   6.399   1.631  0.00  0.00     0.080 N 
HETATM   20  C           1       0.137   7.677   2.073  0.00  0.00     0.309 C 
HETATM   21  C           1       1.508   5.892   2.646  0.00  0.00     0.309 C 
ENDBRANCH  18  19
ENDBRANCH  17  18
ENDBRANCH  16  17
ENDBRANCH  15  16
ENDBRANCH  14  15
ENDBRANCH  12  14
ENDBRANCH  11  12
ENDBRANCH   9  11
BRANCH   8  22
HETATM   22  S           1       0.313  -1.584  -0.624  0.00  0.00    -0.105 SA
BRANCH  22  23
HETATM   23  C           1       1.717  -2.614  -1.135  0.00  0.00     0.119 C 
BRANCH  23  24
HETATM   24  C           1       2.974  -1.803  -1.093  0.00  0.00    -0.049 A 
HETATM   25  C           1       4.192  -2.384  -1.445  0.00  0.00     0.008 A 
HETATM   26  C           1       5.363  -1.628  -1.406  0.00  0.00     0.001 A 
HETATM   27  C           1       5.317  -0.291  -1.013  0.00  0.00     0.000 A 
HETATM   28  C           1       4.099   0.291  -0.660  0.00  0.00     0.001 A 
HETATM   29  C           1       2.928  -0.465  -0.700  0.00  0.00     0.008 A 
ENDBRANCH  23  24
ENDBRANCH  22  23
ENDBRANCH   8  22
TORSDOF 11
