REMARK  9 active torsions:
REMARK  status: ('A' for Active; 'I' for Inactive)
REMARK    1  A    between atoms: C_8  and  S_23 
REMARK    2  A    between atoms: C_9  and  C_11 
REMARK    3  A    between atoms: C_11  and  N_12 
REMARK    4  A    between atoms: N_12  and  C_13 
REMARK    5  A    between atoms: C_13  and  C_14 
REMARK    6  A    between atoms: C_14  and  C_15 
REMARK    7  A    between atoms: N_18  and  C_21 
REMARK    8  A    between atoms: S_23  and  C_24 
REMARK    9  A    between atoms: C_24  and  C_25 
ROOT
HETATM    1  C           1      -2.867  -7.603  -1.691  0.00  0.00     0.001 A 
HETATM    2  C           1      -1.515  -7.793  -1.951  0.00  0.00     0.002 A 
HETATM    3  C           1      -0.618  -6.733  -1.782  0.00  0.00     0.032 A 
HETATM    4  C           1      -1.038  -5.480  -1.357  0.00  0.00     0.068 A 
HETATM    5  C           1      -2.413  -5.293  -1.094  0.00  0.00    -0.007 A 
HETATM    6  C           1      -3.318  -6.356  -1.263  0.00  0.00     0.014 A 
HETATM    7  N           1      -0.136  -4.493  -1.209  0.00  0.00    -0.241 NA
HETATM    8  C           1      -0.581  -3.286  -0.794  0.00  0.00     0.102 A 
HETATM    9  C           1      -1.904  -3.006  -0.512  0.00  0.00     0.006 A 
HETATM   10  C           1      -2.833  -4.027  -0.665  0.00  0.00     0.025 A 
ENDROOT
BRANCH   9  11
HETATM   11  C           1      -2.324  -1.643  -0.055  0.00  0.00     0.311 C 
BRANCH  11  12
HETATM   12  N           1      -1.172  -0.785   0.017  0.00  0.00     0.087 N 
HETATM   13  H           1      -0.507  -1.164   0.692  0.00  0.00     0.316 HD
BRANCH  12  14
HETATM   14  C           1      -1.618   0.509   0.458  0.00  0.00     0.270 C 
BRANCH  14  15
HETATM   15  C           1      -0.426   1.453   0.549  0.00  0.00     0.034 C 
BRANCH  15  16
HETATM   16  C           1      -0.898   2.824   1.016  0.00  0.00    -0.010 C 
HETATM   17  C           1      -0.205   3.172   2.330  0.00  0.00     0.035 C 
HETATM   18  C           1      -0.492   4.614   2.743  0.00  0.00     0.272 C 
HETATM   19  N           1      -0.123   5.557   1.687  0.00  0.00     0.088 N 
HETATM   20  C           1      -0.842   5.277   0.443  0.00  0.00     0.272 C 
HETATM   21  C           1      -0.568   3.859  -0.054  0.00  0.00     0.035 C 
BRANCH  19  22
HETATM   22  C           1      -0.538   6.854   2.150  0.00  0.00     0.268 C 
HETATM   23  C           1      -0.189   7.903   1.102  0.00  0.00     0.037 C 
ENDBRANCH  19  22
ENDBRANCH  15  16
ENDBRANCH  14  15
ENDBRANCH  12  14
ENDBRANCH  11  12
ENDBRANCH   9  11
BRANCH   8  24
HETATM   24  S           1       0.635  -1.953  -0.595  0.00  0.00    -0.105 SA
BRANCH  24  25
HETATM   25  C           1       2.039  -2.983  -1.105  0.00  0.00     0.119 C 
BRANCH  25  26
HETATM   26  C           1       3.296  -2.172  -1.063  0.00  0.00    -0.049 A 
HETATM   27  C           1       4.513  -2.753  -1.416  0.00  0.00     0.008 A 
HETATM   28  C           1       5.685  -1.997  -1.376  0.00  0.00     0.001 A 
HETATM   29  C           1       5.639  -0.660  -0.983  0.00  0.00     0.000 A 
HETATM   30  C           1       4.421  -0.078  -0.630  0.00  0.00     0.001 A 
HETATM   31  C           1       3.249  -0.834  -0.670  0.00  0.00     0.008 A 
ENDBRANCH  25  26
ENDBRANCH  24  25
ENDBRANCH   8  24
TORSDOF 9
