REMARK  6 active torsions:
REMARK  status: ('A' for Active; 'I' for Inactive)
REMARK    1  A    between atoms: C_8  and  S_16 
REMARK    2  A    between atoms: C_9  and  C_11 
REMARK    3  A    between atoms: C_11  and  N_12 
REMARK    4  A    between atoms: N_12  and  C_13 
REMARK    5  A    between atoms: C_13  and  C_14 
REMARK    6  A    between atoms: C_14  and  C_15 
ROOT
HETATM    1  C           1      -1.017  -0.979  -0.147  0.00  0.00     0.311 C 
ENDROOT
BRANCH   1   2
HETATM    2  C           1      -0.598  -2.341  -0.604  0.00  0.00     0.006 A 
HETATM    3  C           1       0.726  -2.622  -0.886  0.00  0.00     0.101 A 
HETATM    4  N           1       1.170  -3.828  -1.301  0.00  0.00    -0.241 NA
HETATM    5  C           1       0.268  -4.816  -1.449  0.00  0.00     0.068 A 
HETATM    6  C           1       0.688  -6.069  -1.874  0.00  0.00     0.032 A 
HETATM    7  C           1      -1.106  -4.629  -1.186  0.00  0.00    -0.007 A 
HETATM    8  C           1      -0.208  -7.128  -2.043  0.00  0.00     0.002 A 
HETATM    9  C           1      -1.561  -6.939  -1.783  0.00  0.00     0.001 A 
HETATM   10  C           1      -2.011  -5.692  -1.355  0.00  0.00     0.014 A 
HETATM   11  C           1      -1.527  -3.363  -0.757  0.00  0.00     0.025 A 
BRANCH   3  12
HETATM   12  S           1       1.941  -1.288  -0.686  0.00  0.00    -0.114 SA
HETATM   13  C           1       3.345  -2.319  -1.197  0.00  0.00     0.097 C 
ENDBRANCH   3  12
ENDBRANCH   1   2
BRANCH   1  14
HETATM   14  N           1       0.134  -0.121  -0.075  0.00  0.00     0.088 N 
HETATM   15  H           1       0.799  -0.500   0.600  0.00  0.00     0.316 HD
BRANCH  14  16
HETATM   16  C           1      -0.311   1.173   0.366  0.00  0.00     0.277 C 
BRANCH  16  17
HETATM   17  C           1       0.880   2.117   0.457  0.00  0.00     0.110 C 
BRANCH  17  18
HETATM   18  C           1       0.416   3.464   0.917  0.00  0.00     0.128 A 
HETATM   19  N           1       1.352   4.418   1.049  0.00  0.00    -0.238 NA
HETATM   20  C           1       0.905   5.618   1.463  0.00  0.00     0.034 A 
HETATM   21  C           1       1.899   6.725   1.631  0.00  0.00     0.070 C 
HETATM   22  C           1      -0.417   5.883   1.741  0.00  0.00     0.053 A 
HETATM   23  C           1      -1.284   4.829   1.569  0.00  0.00     0.034 A 
HETATM   24  C           1      -2.736   5.052   1.854  0.00  0.00     0.070 C 
HETATM   25  N           1      -0.897   3.607   1.157  0.00  0.00    -0.238 NA
ENDBRANCH  17  18
ENDBRANCH  16  17
ENDBRANCH  14  16
ENDBRANCH   1  14
TORSDOF 6
