REMARK  7 active torsions:
REMARK  status: ('A' for Active; 'I' for Inactive)
REMARK    1  A    between atoms: C_8  and  S_23 
REMARK    2  A    between atoms: C_9  and  C_11 
REMARK    3  A    between atoms: C_11  and  N_12 
REMARK    4  A    between atoms: N_12  and  C_13 
REMARK    5  A    between atoms: C_13  and  C_14 
REMARK    6  A    between atoms: C_14  and  C_15 
REMARK    7  A    between atoms: N_18  and  C_21 
ROOT
HETATM    1  C           1      -1.413  -1.867  -0.246  0.00  0.00     0.311 C 
ENDROOT
BRANCH   1   2
HETATM    2  C           1      -0.993  -3.229  -0.703  0.00  0.00     0.006 A 
HETATM    3  C           1       0.330  -3.509  -0.985  0.00  0.00     0.101 A 
HETATM    4  N           1       0.774  -4.716  -1.400  0.00  0.00    -0.241 NA
HETATM    5  C           1      -0.128  -5.703  -1.548  0.00  0.00     0.068 A 
HETATM    6  C           1       0.293  -6.956  -1.973  0.00  0.00     0.032 A 
HETATM    7  C           1      -1.502  -5.516  -1.285  0.00  0.00    -0.007 A 
HETATM    8  C           1      -0.604  -8.016  -2.142  0.00  0.00     0.002 A 
HETATM    9  C           1      -1.957  -7.826  -1.882  0.00  0.00     0.001 A 
HETATM   10  C           1      -2.407  -6.579  -1.454  0.00  0.00     0.014 A 
HETATM   11  C           1      -1.923  -4.250  -0.856  0.00  0.00     0.025 A 
BRANCH   3  12
HETATM   12  S           1       1.545  -2.176  -0.785  0.00  0.00    -0.114 SA
HETATM   13  C           1       2.949  -3.207  -1.296  0.00  0.00     0.097 C 
ENDBRANCH   3  12
ENDBRANCH   1   2
BRANCH   1  14
HETATM   14  N           1      -0.261  -1.009  -0.174  0.00  0.00     0.087 N 
HETATM   15  H           1       0.403  -1.388   0.501  0.00  0.00     0.316 HD
BRANCH  14  16
HETATM   16  C           1      -0.707   0.285   0.267  0.00  0.00     0.270 C 
BRANCH  16  17
HETATM   17  C           1       0.485   1.230   0.359  0.00  0.00     0.034 C 
BRANCH  17  18
HETATM   18  C           1       0.013   2.600   0.826  0.00  0.00    -0.010 C 
HETATM   19  C           1       0.706   2.948   2.139  0.00  0.00     0.035 C 
HETATM   20  C           1       0.418   4.390   2.552  0.00  0.00     0.272 C 
HETATM   21  N           1       0.788   5.334   1.496  0.00  0.00     0.088 N 
HETATM   22  C           1       0.068   5.054   0.253  0.00  0.00     0.272 C 
HETATM   23  C           1       0.343   3.636  -0.245  0.00  0.00     0.035 C 
BRANCH  21  24
HETATM   24  C           1       0.372   6.630   1.959  0.00  0.00     0.268 C 
HETATM   25  C           1       0.721   7.680   0.912  0.00  0.00     0.037 C 
ENDBRANCH  21  24
ENDBRANCH  17  18
ENDBRANCH  16  17
ENDBRANCH  14  16
ENDBRANCH   1  14
TORSDOF 7
