REMARK  8 active torsions:
REMARK  status: ('A' for Active; 'I' for Inactive)
REMARK    1  A    between atoms: C_8  and  S_21 
REMARK    2  A    between atoms: C_9  and  C_11 
REMARK    3  A    between atoms: C_11  and  N_12 
REMARK    4  A    between atoms: N_12  and  C_13 
REMARK    5  A    between atoms: C_13  and  C_14 
REMARK    6  A    between atoms: C_14  and  C_15 
REMARK    7  A    between atoms: S_21  and  C_22 
REMARK    8  A    between atoms: C_22  and  C_23 
ROOT
HETATM    1  C           1      -2.656  -6.233  -1.410  0.00  0.00     0.001 A 
HETATM    2  C           1      -1.304  -6.422  -1.670  0.00  0.00     0.002 A 
HETATM    3  C           1      -0.407  -5.363  -1.501  0.00  0.00     0.032 A 
HETATM    4  C           1      -0.827  -4.110  -1.076  0.00  0.00     0.068 A 
HETATM    5  C           1      -2.202  -3.923  -0.813  0.00  0.00    -0.007 A 
HETATM    6  C           1      -3.107  -4.985  -0.982  0.00  0.00     0.014 A 
HETATM    7  N           1       0.075  -3.122  -0.928  0.00  0.00    -0.241 NA
HETATM    8  C           1      -0.370  -1.916  -0.513  0.00  0.00     0.102 A 
HETATM    9  C           1      -1.693  -1.635  -0.231  0.00  0.00     0.006 A 
HETATM   10  C           1      -2.622  -2.657  -0.384  0.00  0.00     0.025 A 
ENDROOT
BRANCH   9  11
HETATM   11  C           1      -2.113  -0.273   0.226  0.00  0.00     0.311 C 
BRANCH  11  12
HETATM   12  N           1      -0.961   0.585   0.298  0.00  0.00     0.087 N 
HETATM   13  H           1      -0.296   0.206   0.973  0.00  0.00     0.316 HD
BRANCH  12  14
HETATM   14  C           1      -1.407   1.879   0.739  0.00  0.00     0.276 C 
BRANCH  14  15
HETATM   15  C           1      -0.215   2.823   0.830  0.00  0.00     0.087 C 
BRANCH  15  16
HETATM   16  C           1      -0.679   4.171   1.289  0.00  0.00     0.012 A 
HETATM   17  C           1       0.117   5.277   1.487  0.00  0.00     0.026 A 
HETATM   18  C           1      -0.724   6.330   1.919  0.00  0.00     0.019 A 
HETATM   19  C           1      -2.008   5.835   1.972  0.00  0.00     0.090 A 
HETATM   20  N           1      -1.971   4.520   1.587  0.00  0.00    -0.364 N 
HETATM   21  C           1      -3.134   3.624   1.505  0.00  0.00     0.155 C 
ENDBRANCH  15  16
ENDBRANCH  14  15
ENDBRANCH  12  14
ENDBRANCH  11  12
ENDBRANCH   9  11
BRANCH   8  22
HETATM   22  S           1       0.846  -0.582  -0.313  0.00  0.00    -0.105 SA
BRANCH  22  23
HETATM   23  C           1       2.249  -1.613  -0.824  0.00  0.00     0.119 C 
BRANCH  23  24
HETATM   24  C           1       3.507  -0.801  -0.782  0.00  0.00    -0.049 A 
HETATM   25  C           1       4.724  -1.383  -1.135  0.00  0.00     0.008 A 
HETATM   26  C           1       5.896  -0.627  -1.095  0.00  0.00     0.001 A 
HETATM   27  C           1       5.850   0.711  -0.702  0.00  0.00     0.000 A 
HETATM   28  C           1       4.632   1.292  -0.349  0.00  0.00     0.001 A 
HETATM   29  C           1       3.460   0.536  -0.389  0.00  0.00     0.008 A 
ENDBRANCH  23  24
ENDBRANCH  22  23
ENDBRANCH   8  22
TORSDOF 8
