REMARK  10 active torsions:
REMARK  status: ('A' for Active; 'I' for Inactive)
REMARK    1  A    between atoms: C_8  and  S_12 
REMARK    2  A    between atoms: C_9  and  C_11 
REMARK    3  A    between atoms: C_11  and  N_14 
REMARK    4  A    between atoms: S_12  and  C_13 
REMARK    5  A    between atoms: C_13  and  C_22 
REMARK    6  A    between atoms: N_14  and  C_15 
REMARK    7  A    between atoms: C_15  and  C_16 
REMARK    8  A    between atoms: C_16  and  C_17 
REMARK    9  A    between atoms: C_17  and  C_18 
REMARK   10  A    between atoms: C_18  and  N_19 
ROOT
HETATM    1  C           1      -3.051  -6.830  -1.411  0.00  0.00     0.001 A 
HETATM    2  C           1      -1.698  -7.020  -1.671  0.00  0.00     0.002 A 
HETATM    3  C           1      -0.801  -5.961  -1.502  0.00  0.00     0.032 A 
HETATM    4  C           1      -1.222  -4.707  -1.077  0.00  0.00     0.068 A 
HETATM    5  C           1      -2.596  -4.520  -0.814  0.00  0.00    -0.007 A 
HETATM    6  C           1      -3.501  -5.583  -0.983  0.00  0.00     0.014 A 
HETATM    7  N           1      -0.320  -3.720  -0.929  0.00  0.00    -0.241 NA
HETATM    8  C           1      -0.764  -2.513  -0.514  0.00  0.00     0.102 A 
HETATM    9  C           1      -2.088  -2.233  -0.232  0.00  0.00     0.006 A 
HETATM   10  C           1      -3.017  -3.254  -0.385  0.00  0.00     0.025 A 
ENDROOT
BRANCH   9  11
HETATM   11  C           1      -2.507  -0.871   0.225  0.00  0.00     0.311 C 
BRANCH  11  12
HETATM   12  N           1      -1.355  -0.013   0.297  0.00  0.00     0.087 N 
HETATM   13  H           1      -0.691  -0.392   0.972  0.00  0.00     0.316 HD
BRANCH  12  14
HETATM   14  C           1      -1.801   1.281   0.738  0.00  0.00     0.270 C 
BRANCH  14  15
HETATM   15  C           1      -0.609   2.226   0.829  0.00  0.00     0.032 C 
BRANCH  15  16
HETATM   16  C           1      -1.082   3.596   1.296  0.00  0.00     0.032 C 
BRANCH  16  17
HETATM   17  C           1       0.110   4.541   1.387  0.00  0.00     0.271 C 
BRANCH  17  18
HETATM   18  N           1      -0.336   5.835   1.829  0.00  0.00     0.080 N 
HETATM   19  C           1       0.816   6.693   1.901  0.00  0.00     0.309 C 
HETATM   20  C           1      -1.212   6.363   0.818  0.00  0.00     0.309 C 
ENDBRANCH  17  18
ENDBRANCH  16  17
ENDBRANCH  15  16
ENDBRANCH  14  15
ENDBRANCH  12  14
ENDBRANCH  11  12
ENDBRANCH   9  11
BRANCH   8  21
HETATM   21  S           1       0.451  -1.180  -0.314  0.00  0.00    -0.105 SA
BRANCH  21  22
HETATM   22  C           1       1.855  -2.211  -0.825  0.00  0.00     0.119 C 
BRANCH  22  23
HETATM   23  C           1       3.112  -1.399  -0.783  0.00  0.00    -0.049 A 
HETATM   24  C           1       4.330  -1.981  -1.136  0.00  0.00     0.008 A 
HETATM   25  C           1       5.501  -1.225  -1.096  0.00  0.00     0.001 A 
HETATM   26  C           1       5.455   0.113  -0.703  0.00  0.00     0.000 A 
HETATM   27  C           1       4.237   0.695  -0.350  0.00  0.00     0.001 A 
HETATM   28  C           1       3.066  -0.062  -0.390  0.00  0.00     0.008 A 
ENDBRANCH  22  23
ENDBRANCH  21  22
ENDBRANCH   8  21
TORSDOF 10
