REMARK  6 active torsions:
REMARK  status: ('A' for Active; 'I' for Inactive)
REMARK    1  A    between atoms: C_8  and  S_20 
REMARK    2  A    between atoms: C_9  and  C_11 
REMARK    3  A    between atoms: C_11  and  N_12 
REMARK    4  A    between atoms: N_12  and  C_13 
REMARK    5  A    between atoms: C_13  and  C_14 
REMARK    6  A    between atoms: C_14  and  C_15 
ROOT
HETATM    1  C           1      -1.652  -5.747  -1.429  0.00  0.00     0.001 A 
HETATM    2  C           1      -0.299  -5.937  -1.689  0.00  0.00     0.002 A 
HETATM    3  C           1       0.598  -4.877  -1.520  0.00  0.00     0.032 A 
HETATM    4  C           1       0.177  -3.624  -1.095  0.00  0.00     0.068 A 
HETATM    5  C           1      -1.197  -3.437  -0.832  0.00  0.00    -0.007 A 
HETATM    6  C           1      -2.102  -4.500  -1.001  0.00  0.00     0.014 A 
HETATM    7  N           1       1.079  -2.637  -0.947  0.00  0.00    -0.241 NA
HETATM    8  C           1       0.635  -1.430  -0.532  0.00  0.00     0.101 A 
HETATM    9  C           1      -0.689  -1.150  -0.250  0.00  0.00     0.006 A 
HETATM   10  C           1      -1.618  -2.171  -0.403  0.00  0.00     0.025 A 
ENDROOT
BRANCH   9  11
HETATM   11  C           1      -1.108   0.213   0.207  0.00  0.00     0.311 C 
BRANCH  11  12
HETATM   12  N           1       0.043   1.071   0.279  0.00  0.00     0.087 N 
HETATM   13  H           1       0.708   0.692   0.954  0.00  0.00     0.316 HD
BRANCH  12  14
HETATM   14  C           1      -0.402   2.365   0.720  0.00  0.00     0.276 C 
BRANCH  14  15
HETATM   15  C           1       0.789   3.309   0.811  0.00  0.00     0.088 C 
BRANCH  15  16
HETATM   16  C           1       0.325   4.656   1.271  0.00  0.00     0.029 A 
HETATM   17  C           1       1.091   5.779   1.478  0.00  0.00     0.143 A 
HETATM   18  N           1       0.312   6.826   1.898  0.00  0.00    -0.254 NA
HETATM   19  C           1      -0.911   6.351   1.947  0.00  0.00     0.207 A 
HETATM   20  N           1      -0.952   5.037   1.575  0.00  0.00    -0.353 N 
HETATM   21  H           1      -1.808   4.431   1.530  0.00  0.00     0.166 HD
ENDBRANCH  15  16
ENDBRANCH  14  15
ENDBRANCH  12  14
ENDBRANCH  11  12
ENDBRANCH   9  11
BRANCH   8  22
HETATM   22  S           1       1.850  -0.097  -0.332  0.00  0.00    -0.114 SA
HETATM   23  C           1       3.254  -1.127  -0.843  0.00  0.00     0.097 C 
ENDBRANCH   8  22
TORSDOF 6
