REMARK  8 active torsions:
REMARK  status: ('A' for Active; 'I' for Inactive)
REMARK    1  A    between atoms: C_8  and  S_23 
REMARK    2  A    between atoms: C_9  and  C_11 
REMARK    3  A    between atoms: C_11  and  N_12 
REMARK    4  A    between atoms: N_12  and  C_13 
REMARK    5  A    between atoms: C_13  and  C_14 
REMARK    6  A    between atoms: C_17  and  N_20 
REMARK    7  A    between atoms: S_23  and  C_24 
REMARK    8  A    between atoms: C_24  and  C_25 
ROOT
HETATM    1  C           1      -3.721  -6.614  -1.357  0.00  0.00     0.001 A 
HETATM    2  C           1      -2.368  -6.804  -1.617  0.00  0.00     0.002 A 
HETATM    3  C           1      -1.471  -5.745  -1.448  0.00  0.00     0.032 A 
HETATM    4  C           1      -1.892  -4.491  -1.023  0.00  0.00     0.068 A 
HETATM    5  C           1      -3.266  -4.304  -0.760  0.00  0.00    -0.007 A 
HETATM    6  C           1      -4.171  -5.367  -0.929  0.00  0.00     0.014 A 
HETATM    7  N           1      -0.990  -3.504  -0.875  0.00  0.00    -0.241 NA
HETATM    8  C           1      -1.434  -2.297  -0.460  0.00  0.00     0.102 A 
HETATM    9  C           1      -2.758  -2.017  -0.178  0.00  0.00     0.006 A 
HETATM   10  C           1      -3.687  -3.038  -0.331  0.00  0.00     0.025 A 
ENDROOT
BRANCH   9  11
HETATM   11  C           1      -3.177  -0.655   0.279  0.00  0.00     0.311 C 
BRANCH  11  12
HETATM   12  N           1      -2.026   0.203   0.351  0.00  0.00     0.091 N 
HETATM   13  H           1      -1.361  -0.176   1.026  0.00  0.00     0.316 HD
BRANCH  12  14
HETATM   14  C           1      -2.471   1.497   0.792  0.00  0.00     0.308 C 
BRANCH  14  15
HETATM   15  C           1      -1.300   2.426   0.882  0.00  0.00    -0.030 A 
HETATM   16  C           1      -1.397   3.600   1.628  0.00  0.00     0.011 A 
HETATM   17  C           1      -0.305   4.465   1.711  0.00  0.00     0.030 A 
HETATM   18  C           1       0.882   4.155   1.049  0.00  0.00     0.029 A 
HETATM   19  C           1       0.979   2.981   0.303  0.00  0.00     0.030 A 
HETATM   20  C           1      -0.112   2.116   0.219  0.00  0.00     0.011 A 
BRANCH  18  21
HETATM   21  N           1       1.873   4.940   1.124  0.00  0.00    -0.390 N 
HETATM   22  C           1       3.124   4.614   0.426  0.00  0.00     0.149 C 
HETATM   23  C           1       1.771   6.178   1.910  0.00  0.00     0.149 C 
ENDBRANCH  18  21
ENDBRANCH  14  15
ENDBRANCH  12  14
ENDBRANCH  11  12
ENDBRANCH   9  11
BRANCH   8  24
HETATM   24  S           1      -0.219  -0.964  -0.260  0.00  0.00    -0.105 SA
BRANCH  24  25
HETATM   25  C           1       1.185  -1.995  -0.771  0.00  0.00     0.119 C 
BRANCH  25  26
HETATM   26  C           1       2.442  -1.183  -0.728  0.00  0.00    -0.049 A 
HETATM   27  C           1       3.575  -1.615  -1.418  0.00  0.00     0.008 A 
HETATM   28  C           1       4.746  -0.859  -1.378  0.00  0.00     0.001 A 
HETATM   29  C           1       4.785   0.329  -0.649  0.00  0.00     0.000 A 
HETATM   30  C           1       3.652   0.761   0.041  0.00  0.00     0.001 A 
HETATM   31  C           1       2.481   0.005   0.001  0.00  0.00     0.008 A 
ENDBRANCH  25  26
ENDBRANCH  24  25
ENDBRANCH   8  24
TORSDOF 8
