REMARK  9 active torsions:
REMARK  status: ('A' for Active; 'I' for Inactive)
REMARK    1  A    between atoms: C_8  and  S_20 
REMARK    2  A    between atoms: C_9  and  C_11 
REMARK    3  A    between atoms: C_11  and  N_12 
REMARK    4  A    between atoms: N_12  and  C_13 
REMARK    5  A    between atoms: C_13  and  C_14 
REMARK    6  A    between atoms: C_14  and  C_15 
REMARK    7  A    between atoms: C_15  and  C_16 
REMARK    8  A    between atoms: C_16  and  C_17 
REMARK    9  A    between atoms: C_17  and  N_18 
ROOT
HETATM    1  C           1      -2.270  -7.400  -1.933  0.00  0.00     0.001 A 
HETATM    2  C           1      -0.917  -7.590  -2.193  0.00  0.00     0.002 A 
HETATM    3  C           1      -0.020  -6.531  -2.024  0.00  0.00     0.032 A 
HETATM    4  C           1      -0.441  -5.277  -1.599  0.00  0.00     0.068 A 
HETATM    5  C           1      -1.815  -5.090  -1.336  0.00  0.00    -0.007 A 
HETATM    6  C           1      -2.720  -6.153  -1.505  0.00  0.00     0.014 A 
HETATM    7  N           1       0.461  -4.290  -1.452  0.00  0.00    -0.241 NA
HETATM    8  C           1       0.017  -3.083  -1.036  0.00  0.00     0.101 A 
HETATM    9  C           1      -1.306  -2.803  -0.754  0.00  0.00     0.006 A 
HETATM   10  C           1      -2.236  -3.825  -0.907  0.00  0.00     0.025 A 
ENDROOT
BRANCH   9  11
HETATM   11  C           1      -1.726  -1.441  -0.297  0.00  0.00     0.311 C 
BRANCH  11  12
HETATM   12  N           1      -0.574  -0.583  -0.225  0.00  0.00     0.087 N 
HETATM   13  H           1       0.090  -0.962   0.450  0.00  0.00     0.316 HD
BRANCH  12  14
HETATM   14  C           1      -1.020   0.711   0.216  0.00  0.00     0.270 C 
BRANCH  14  15
HETATM   15  C           1       0.172   1.656   0.307  0.00  0.00     0.030 C 
BRANCH  15  16
HETATM   16  C           1      -0.301   3.026   0.774  0.00  0.00     0.003 C 
BRANCH  16  17
HETATM   17  C           1       0.891   3.970   0.865  0.00  0.00     0.030 C 
BRANCH  17  18
HETATM   18  C           1       0.419   5.341   1.332  0.00  0.00     0.271 C 
BRANCH  18  19
HETATM   19  N           1       1.544   6.233   1.418  0.00  0.00     0.080 N 
HETATM   20  C           1       1.056   7.511   1.861  0.00  0.00     0.309 C 
HETATM   21  C           1       2.427   5.726   2.434  0.00  0.00     0.309 C 
ENDBRANCH  18  19
ENDBRANCH  17  18
ENDBRANCH  16  17
ENDBRANCH  15  16
ENDBRANCH  14  15
ENDBRANCH  12  14
ENDBRANCH  11  12
ENDBRANCH   9  11
BRANCH   8  22
HETATM   22  S           1       1.232  -1.750  -0.837  0.00  0.00    -0.114 SA
HETATM   23  C           1       2.636  -2.781  -1.348  0.00  0.00     0.097 C 
ENDBRANCH   8  22
TORSDOF 9
