MODEL 1
REMARK VINA RESULT:      -7.2      0.000      0.000
REMARK  6 active torsions:
REMARK  status: ('A' for Active; 'I' for Inactive)
REMARK    1  A    between atoms: C_8  and  S_21 
REMARK    2  A    between atoms: C_9  and  C_11 
REMARK    3  A    between atoms: C_11  and  N_12 
REMARK    4  A    between atoms: N_12  and  C_13 
REMARK    5  A    between atoms: C_13  and  C_14 
REMARK    6  A    between atoms: C_14  and  C_15 
ROOT
HETATM    1  C           1     171.640 186.288 293.261  0.00  0.00     0.001 A 
HETATM    2  C           1     170.773 187.293 292.845  0.00  0.00     0.002 A 
HETATM    3  C           1     170.820 187.751 291.524  0.00  0.00     0.032 A 
HETATM    4  C           1     171.717 187.229 290.601  0.00  0.00     0.068 A 
HETATM    5  C           1     172.595 186.210 291.029  0.00  0.00    -0.007 A 
HETATM    6  C           1     172.550 185.747 292.356  0.00  0.00     0.014 A 
HETATM    7  N           1     171.723 187.703 289.343  0.00  0.00    -0.241 NA
HETATM    8  C           1     172.609 187.173 288.470  0.00  0.00     0.101 A 
HETATM    9  C           1     173.507 186.173 288.794  0.00  0.00     0.006 A 
HETATM   10  C           1     173.498 185.686 290.095  0.00  0.00     0.025 A 
ENDROOT
BRANCH   9  11
HETATM   11  C           1     174.460 185.634 287.774  0.00  0.00     0.311 C 
BRANCH  11  12
HETATM   12  N           1     173.831 184.565 287.046  0.00  0.00     0.087 N 
HETATM   13  H           1     173.688 183.770 287.667  0.00  0.00     0.316 HD
BRANCH  12  14
HETATM   14  C           1     174.715 184.185 285.976  0.00  0.00     0.276 C 
BRANCH  14  15
HETATM   15  C           1     175.243 185.435 285.285  0.00  0.00     0.087 C 
BRANCH  15  16
HETATM   16  C           1     174.533 185.621 283.980  0.00  0.00     0.012 A 
HETATM   17  C           1     173.172 185.553 283.782  0.00  0.00     0.026 A 
HETATM   18  C           1     172.934 185.788 282.407  0.00  0.00     0.019 A 
HETATM   19  C           1     174.156 185.992 281.807  0.00  0.00     0.090 A 
HETATM   20  N           1     175.124 185.889 282.773  0.00  0.00    -0.364 N 
HETATM   21  C           1     176.568 186.041 282.548  0.00  0.00     0.155 C 
ENDBRANCH  15  16
ENDBRANCH  14  15
ENDBRANCH  12  14
ENDBRANCH  11  12
ENDBRANCH   9  11
BRANCH   8  22
HETATM   22  S           1     172.618 187.811 286.772  0.00  0.00    -0.114 SA
HETATM   23  C           1     170.814 187.999 286.697  0.00  0.00     0.097 C 
ENDBRANCH   8  22
TORSDOF 6
ENDMDL
MODEL 2
REMARK VINA RESULT:      -7.1      1.598      2.126
REMARK  6 active torsions:
REMARK  status: ('A' for Active; 'I' for Inactive)
REMARK    1  A    between atoms: C_8  and  S_21 
REMARK    2  A    between atoms: C_9  and  C_11 
REMARK    3  A    between atoms: C_11  and  N_12 
REMARK    4  A    between atoms: N_12  and  C_13 
REMARK    5  A    between atoms: C_13  and  C_14 
REMARK    6  A    between atoms: C_14  and  C_15 
ROOT
HETATM    1  C           1     170.550 186.888 293.813  0.00  0.00     0.001 A 
HETATM    2  C           1     169.255 187.190 293.404  0.00  0.00     0.002 A 
HETATM    3  C           1     168.997 187.465 292.057  0.00  0.00     0.032 A 
HETATM    4  C           1     170.004 187.444 291.101  0.00  0.00     0.068 A 
HETATM    5  C           1     171.316 187.138 291.522  0.00  0.00    -0.007 A 
HETATM    6  C           1     171.580 186.861 292.875  0.00  0.00     0.014 A 
HETATM    7  N           1     169.705 187.715 289.818  0.00  0.00    -0.241 NA
HETATM    8  C           1     170.709 187.688 288.914  0.00  0.00     0.101 A 
HETATM    9  C           1     172.023 187.398 289.228  0.00  0.00     0.006 A 
HETATM   10  C           1     172.330 187.120 290.554  0.00  0.00     0.025 A 
ENDROOT
BRANCH   9  11
HETATM   11  C           1     173.084 187.386 288.172  0.00  0.00     0.311 C 
BRANCH  11  12
HETATM   12  N           1     174.154 186.515 288.576  0.00  0.00     0.087 N 
HETATM   13  H           1     174.949 187.073 288.887  0.00  0.00     0.316 HD
BRANCH  12  14
HETATM   14  C           1     174.537 185.733 287.431  0.00  0.00     0.276 C 
BRANCH  14  15
HETATM   15  C           1     173.436 185.797 286.381  0.00  0.00     0.087 C 
BRANCH  15  16
HETATM   16  C           1     174.048 185.802 285.015  0.00  0.00     0.012 A 
HETATM   17  C           1     174.812 184.796 284.467  0.00  0.00     0.026 A 
HETATM   18  C           1     175.184 185.210 283.166  0.00  0.00     0.019 A 
HETATM   19  C           1     174.637 186.457 282.959  0.00  0.00     0.090 A 
HETATM   20  N           1     173.947 186.808 284.091  0.00  0.00    -0.364 N 
HETATM   21  C           1     173.214 188.068 284.281  0.00  0.00     0.155 C 
ENDBRANCH  15  16
ENDBRANCH  14  15
ENDBRANCH  12  14
ENDBRANCH  11  12
ENDBRANCH   9  11
BRANCH   8  22
HETATM   22  S           1     170.307 188.053 287.182  0.00  0.00    -0.114 SA
HETATM   23  C           1     168.893 189.111 287.600  0.00  0.00     0.097 C 
ENDBRANCH   8  22
TORSDOF 6
ENDMDL
MODEL 3
REMARK VINA RESULT:      -7.0      5.085     11.429
REMARK  6 active torsions:
REMARK  status: ('A' for Active; 'I' for Inactive)
REMARK    1  A    between atoms: C_8  and  S_21 
REMARK    2  A    between atoms: C_9  and  C_11 
REMARK    3  A    between atoms: C_11  and  N_12 
REMARK    4  A    between atoms: N_12  and  C_13 
REMARK    5  A    between atoms: C_13  and  C_14 
REMARK    6  A    between atoms: C_14  and  C_15 
ROOT
HETATM    1  C           1     177.448 186.392 274.507  0.00  0.00     0.001 A 
HETATM    2  C           1     176.519 185.717 273.722  0.00  0.00     0.002 A 
HETATM    3  C           1     175.260 185.405 274.247  0.00  0.00     0.032 A 
HETATM    4  C           1     174.903 185.751 275.543  0.00  0.00     0.068 A 
HETATM    5  C           1     175.850 186.434 276.335  0.00  0.00    -0.007 A 
HETATM    6  C           1     177.116 186.750 275.812  0.00  0.00     0.014 A 
HETATM    7  N           1     173.680 185.427 276.002  0.00  0.00    -0.241 NA
HETATM    8  C           1     173.365 185.778 277.268  0.00  0.00     0.101 A 
HETATM    9  C           1     174.224 186.449 278.119  0.00  0.00     0.006 A 
HETATM   10  C           1     175.486 186.780 277.643  0.00  0.00     0.025 A 
ENDROOT
BRANCH   9  11
HETATM   11  C           1     173.805 186.805 279.512  0.00  0.00     0.311 C 
BRANCH  11  12
HETATM   12  N           1     174.887 187.474 280.182  0.00  0.00     0.087 N 
HETATM   13  H           1     175.711 187.473 279.583  0.00  0.00     0.316 HD
BRANCH  12  14
HETATM   14  C           1     175.172 186.743 281.389  0.00  0.00     0.276 C 
BRANCH  14  15
HETATM   15  C           1     173.910 186.039 281.866  0.00  0.00     0.087 C 
BRANCH  15  16
HETATM   16  C           1     174.022 185.751 283.331  0.00  0.00     0.012 A 
HETATM   17  C           1     174.870 184.836 283.913  0.00  0.00     0.026 A 
HETATM   18  C           1     174.651 184.887 285.310  0.00  0.00     0.019 A 
HETATM   19  C           1     173.674 185.831 285.538  0.00  0.00     0.090 A 
HETATM   20  N           1     173.298 186.351 284.327  0.00  0.00    -0.364 N 
HETATM   21  C           1     172.278 187.390 284.130  0.00  0.00     0.155 C 
ENDBRANCH  15  16
ENDBRANCH  14  15
ENDBRANCH  12  14
ENDBRANCH  11  12
ENDBRANCH   9  11
BRANCH   8  22
HETATM   22  S           1     171.716 185.344 277.888  0.00  0.00    -0.114 SA
HETATM   23  C           1     170.864 186.561 276.846  0.00  0.00     0.097 C 
ENDBRANCH   8  22
TORSDOF 6
ENDMDL
MODEL 4
REMARK VINA RESULT:      -7.0      1.806      2.796
REMARK  6 active torsions:
REMARK  status: ('A' for Active; 'I' for Inactive)
REMARK    1  A    between atoms: C_8  and  S_21 
REMARK    2  A    between atoms: C_9  and  C_11 
REMARK    3  A    between atoms: C_11  and  N_12 
REMARK    4  A    between atoms: N_12  and  C_13 
REMARK    5  A    between atoms: C_13  and  C_14 
REMARK    6  A    between atoms: C_14  and  C_15 
ROOT
HETATM    1  C           1     171.271 187.261 292.598  0.00  0.00     0.001 A 
HETATM    2  C           1     172.076 186.158 292.868  0.00  0.00     0.002 A 
HETATM    3  C           1     172.900 185.636 291.866  0.00  0.00     0.032 A 
HETATM    4  C           1     172.943 186.189 290.593  0.00  0.00     0.068 A 
HETATM    5  C           1     172.124 187.306 290.324  0.00  0.00    -0.007 A 
HETATM    6  C           1     171.294 187.835 291.329  0.00  0.00     0.014 A 
HETATM    7  N           1     173.752 185.649 289.663  0.00  0.00    -0.241 NA
HETATM    8  C           1     173.768 186.211 288.434  0.00  0.00     0.101 A 
HETATM    9  C           1     173.005 187.307 288.076  0.00  0.00     0.006 A 
HETATM   10  C           1     172.169 187.861 289.038  0.00  0.00     0.025 A 
ENDROOT
BRANCH   9  11
HETATM   11  C           1     173.075 187.876 286.694  0.00  0.00     0.311 C 
BRANCH  11  12
HETATM   12  N           1     171.860 187.572 285.987  0.00  0.00     0.087 N 
HETATM   13  H           1     171.463 186.707 286.349  0.00  0.00     0.316 HD
BRANCH  12  14
HETATM   14  C           1     172.193 187.403 284.598  0.00  0.00     0.276 C 
BRANCH  14  15
HETATM   15  C           1     173.412 188.251 284.261  0.00  0.00     0.087 C 
BRANCH  15  16
HETATM   16  C           1     174.279 187.515 283.287  0.00  0.00     0.012 A 
HETATM   17  C           1     175.248 186.590 283.605  0.00  0.00     0.026 A 
HETATM   18  C           1     175.821 186.145 282.391  0.00  0.00     0.019 A 
HETATM   19  C           1     175.185 186.812 281.368  0.00  0.00     0.090 A 
HETATM   20  N           1     174.248 187.644 281.924  0.00  0.00    -0.364 N 
HETATM   21  C           1     173.351 188.535 281.174  0.00  0.00     0.155 C 
ENDBRANCH  15  16
ENDBRANCH  14  15
ENDBRANCH  12  14
ENDBRANCH  11  12
ENDBRANCH   9  11
BRANCH   8  22
HETATM   22  S           1     174.860 185.486 287.179  0.00  0.00    -0.114 SA
HETATM   23  C           1     173.551 184.459 286.452  0.00  0.00     0.097 C 
ENDBRANCH   8  22
TORSDOF 6
ENDMDL
MODEL 5
REMARK VINA RESULT:      -6.8      2.046      6.842
REMARK  6 active torsions:
REMARK  status: ('A' for Active; 'I' for Inactive)
REMARK    1  A    between atoms: C_8  and  S_21 
REMARK    2  A    between atoms: C_9  and  C_11 
REMARK    3  A    between atoms: C_11  and  N_12 
REMARK    4  A    between atoms: N_12  and  C_13 
REMARK    5  A    between atoms: C_13  and  C_14 
REMARK    6  A    between atoms: C_14  and  C_15 
ROOT
HETATM    1  C           1     174.481 186.681 283.966  0.00  0.00     0.001 A 
HETATM    2  C           1     174.658 185.351 284.332  0.00  0.00     0.002 A 
HETATM    3  C           1     173.819 184.776 285.292  0.00  0.00     0.032 A 
HETATM    4  C           1     172.802 185.498 285.901  0.00  0.00     0.068 A 
HETATM    5  C           1     172.628 186.848 285.526  0.00  0.00    -0.007 A 
HETATM    6  C           1     173.468 187.430 284.561  0.00  0.00     0.014 A 
HETATM    7  N           1     172.022 184.900 286.819  0.00  0.00    -0.241 NA
HETATM    8  C           1     171.042 185.633 287.392  0.00  0.00     0.101 A 
HETATM    9  C           1     170.792 186.959 287.091  0.00  0.00     0.006 A 
HETATM   10  C           1     171.600 187.574 286.143  0.00  0.00     0.025 A 
ENDROOT
BRANCH   9  11
HETATM   11  C           1     169.687 187.708 287.767  0.00  0.00     0.311 C 
BRANCH  11  12
HETATM   12  N           1     170.245 188.645 288.703  0.00  0.00     0.087 N 
HETATM   13  H           1     171.222 188.820 288.470  0.00  0.00     0.316 HD
BRANCH  12  14
HETATM   14  C           1     170.164 188.055 290.013  0.00  0.00     0.276 C 
BRANCH  14  15
HETATM   15  C           1     171.453 188.331 290.776  0.00  0.00     0.087 C 
BRANCH  15  16
HETATM   16  C           1     172.453 187.261 290.470  0.00  0.00     0.012 A 
HETATM   17  C           1     173.325 187.248 289.404  0.00  0.00     0.026 A 
HETATM   18  C           1     174.087 186.060 289.497  0.00  0.00     0.019 A 
HETATM   19  C           1     173.657 185.382 290.616  0.00  0.00     0.090 A 
HETATM   20  N           1     172.663 186.122 291.202  0.00  0.00    -0.364 N 
HETATM   21  C           1     171.935 185.750 292.424  0.00  0.00     0.155 C 
ENDBRANCH  15  16
ENDBRANCH  14  15
ENDBRANCH  12  14
ENDBRANCH  11  12
ENDBRANCH   9  11
BRANCH   8  22
HETATM   22  S           1     169.988 184.827 288.631  0.00  0.00    -0.114 SA
HETATM   23  C           1     168.775 184.252 287.409  0.00  0.00     0.097 C 
ENDBRANCH   8  22
TORSDOF 6
ENDMDL
MODEL 6
REMARK VINA RESULT:      -6.8     13.183     16.044
REMARK  6 active torsions:
REMARK  status: ('A' for Active; 'I' for Inactive)
REMARK    1  A    between atoms: C_8  and  S_21 
REMARK    2  A    between atoms: C_9  and  C_11 
REMARK    3  A    between atoms: C_11  and  N_12 
REMARK    4  A    between atoms: N_12  and  C_13 
REMARK    5  A    between atoms: C_13  and  C_14 
REMARK    6  A    between atoms: C_14  and  C_15 
ROOT
HETATM    1  C           1     177.006 185.142 276.367  0.00  0.00     0.001 A 
HETATM    2  C           1     177.998 185.853 275.699  0.00  0.00     0.002 A 
HETATM    3  C           1     177.731 186.407 274.442  0.00  0.00     0.032 A 
HETATM    4  C           1     176.492 186.268 273.831  0.00  0.00     0.068 A 
HETATM    5  C           1     175.490 185.545 274.512  0.00  0.00    -0.007 A 
HETATM    6  C           1     175.754 184.987 275.776  0.00  0.00     0.014 A 
HETATM    7  N           1     176.285 186.819 272.621  0.00  0.00    -0.241 NA
HETATM    8  C           1     175.068 186.664 272.054  0.00  0.00     0.101 A 
HETATM    9  C           1     174.024 185.975 272.643  0.00  0.00     0.006 A 
HETATM   10  C           1     174.241 185.407 273.891  0.00  0.00     0.025 A 
ENDROOT
BRANCH   9  11
HETATM   11  C           1     172.702 185.845 271.954  0.00  0.00     0.311 C 
BRANCH  11  12
HETATM   12  N           1     172.461 184.464 271.635  0.00  0.00     0.087 N 
HETATM   13  H           1     173.220 183.891 272.002  0.00  0.00     0.316 HD
BRANCH  12  14
HETATM   14  C           1     172.423 184.346 270.202  0.00  0.00     0.276 C 
BRANCH  14  15
HETATM   15  C           1     173.228 183.128 269.769  0.00  0.00     0.087 C 
BRANCH  15  16
HETATM   16  C           1     174.687 183.459 269.796  0.00  0.00     0.012 A 
HETATM   17  C           1     175.565 183.167 270.815  0.00  0.00     0.026 A 
HETATM   18  C           1     176.836 183.655 270.430  0.00  0.00     0.019 A 
HETATM   19  C           1     176.696 184.231 269.187  0.00  0.00     0.090 A 
HETATM   20  N           1     175.384 184.106 268.809  0.00  0.00    -0.364 N 
HETATM   21  C           1     174.815 184.592 267.544  0.00  0.00     0.155 C 
ENDBRANCH  15  16
ENDBRANCH  14  15
ENDBRANCH  12  14
ENDBRANCH  11  12
ENDBRANCH   9  11
BRANCH   8  22
HETATM   22  S           1     174.787 187.407 270.422  0.00  0.00    -0.114 SA
HETATM   23  C           1     175.275 189.072 270.956  0.00  0.00     0.097 C 
ENDBRANCH   8  22
TORSDOF 6
ENDMDL
MODEL 7
REMARK VINA RESULT:      -6.8      1.528      3.242
REMARK  6 active torsions:
REMARK  status: ('A' for Active; 'I' for Inactive)
REMARK    1  A    between atoms: C_8  and  S_21 
REMARK    2  A    between atoms: C_9  and  C_11 
REMARK    3  A    between atoms: C_11  and  N_12 
REMARK    4  A    between atoms: N_12  and  C_13 
REMARK    5  A    between atoms: C_13  and  C_14 
REMARK    6  A    between atoms: C_14  and  C_15 
ROOT
HETATM    1  C           1     169.029 189.258 286.972  0.00  0.00     0.001 A 
HETATM    2  C           1     168.732 189.268 288.331  0.00  0.00     0.002 A 
HETATM    3  C           1     169.560 188.586 289.229  0.00  0.00     0.032 A 
HETATM    4  C           1     170.684 187.890 288.803  0.00  0.00     0.068 A 
HETATM    5  C           1     170.978 187.882 287.423  0.00  0.00    -0.007 A 
HETATM    6  C           1     170.149 188.566 286.517  0.00  0.00     0.014 A 
HETATM    7  N           1     171.448 187.250 289.706  0.00  0.00    -0.241 NA
HETATM    8  C           1     172.533 186.581 289.258  0.00  0.00     0.101 A 
HETATM    9  C           1     172.905 186.516 287.927  0.00  0.00     0.006 A 
HETATM   10  C           1     172.113 187.177 286.997  0.00  0.00     0.025 A 
ENDROOT
BRANCH   9  11
HETATM   11  C           1     174.122 185.755 287.503  0.00  0.00     0.311 C 
BRANCH  11  12
HETATM   12  N           1     173.724 184.516 286.892  0.00  0.00     0.087 N 
HETATM   13  H           1     173.788 183.763 287.575  0.00  0.00     0.316 HD
BRANCH  12  14
HETATM   14  C           1     174.630 184.255 285.805  0.00  0.00     0.276 C 
BRANCH  14  15
HETATM   15  C           1     175.086 185.573 285.195  0.00  0.00     0.087 C 
BRANCH  15  16
HETATM   16  C           1     174.390 185.784 283.886  0.00  0.00     0.012 A 
HETATM   17  C           1     173.028 185.820 283.690  0.00  0.00     0.026 A 
HETATM   18  C           1     172.805 186.041 282.311  0.00  0.00     0.019 A 
HETATM   19  C           1     174.039 186.133 281.705  0.00  0.00     0.090 A 
HETATM   20  N           1     174.997 185.975 282.673  0.00  0.00    -0.364 N 
HETATM   21  C           1     176.449 186.006 282.444  0.00  0.00     0.155 C 
ENDBRANCH  15  16
ENDBRANCH  14  15
ENDBRANCH  12  14
ENDBRANCH  11  12
ENDBRANCH   9  11
BRANCH   8  22
HETATM   22  S           1     173.566 185.717 290.474  0.00  0.00    -0.114 SA
HETATM   23  C           1     172.426 186.029 291.852  0.00  0.00     0.097 C 
ENDBRANCH   8  22
TORSDOF 6
ENDMDL
MODEL 8
REMARK VINA RESULT:      -6.8      1.784      7.955
REMARK  6 active torsions:
REMARK  status: ('A' for Active; 'I' for Inactive)
REMARK    1  A    between atoms: C_8  and  S_21 
REMARK    2  A    between atoms: C_9  and  C_11 
REMARK    3  A    between atoms: C_11  and  N_12 
REMARK    4  A    between atoms: N_12  and  C_13 
REMARK    5  A    between atoms: C_13  and  C_14 
REMARK    6  A    between atoms: C_14  and  C_15 
ROOT
HETATM    1  C           1     172.619 187.600 280.656  0.00  0.00     0.001 A 
HETATM    2  C           1     173.096 186.298 280.546  0.00  0.00     0.002 A 
HETATM    3  C           1     173.375 185.559 281.701  0.00  0.00     0.032 A 
HETATM    4  C           1     173.187 186.089 282.970  0.00  0.00     0.068 A 
HETATM    5  C           1     172.704 187.411 283.075  0.00  0.00    -0.007 A 
HETATM    6  C           1     172.423 188.157 281.917  0.00  0.00     0.014 A 
HETATM    7  N           1     173.470 185.338 284.050  0.00  0.00    -0.241 NA
HETATM    8  C           1     173.277 185.885 285.270  0.00  0.00     0.101 A 
HETATM    9  C           1     172.807 187.169 285.475  0.00  0.00     0.006 A 
HETATM   10  C           1     172.517 187.943 284.358  0.00  0.00     0.025 A 
ENDROOT
BRANCH   9  11
HETATM   11  C           1     172.618 187.709 286.859  0.00  0.00     0.311 C 
BRANCH  11  12
HETATM   12  N           1     171.239 187.575 287.242  0.00  0.00     0.087 N 
HETATM   13  H           1     170.693 188.326 286.823  0.00  0.00     0.316 HD
BRANCH  12  14
HETATM   14  C           1     171.172 187.678 288.676  0.00  0.00     0.276 C 
BRANCH  14  15
HETATM   15  C           1     172.581 187.663 289.253  0.00  0.00     0.087 C 
BRANCH  15  16
HETATM   16  C           1     172.649 186.682 290.381  0.00  0.00     0.012 A 
HETATM   17  C           1     173.315 185.477 290.366  0.00  0.00     0.026 A 
HETATM   18  C           1     173.121 184.872 291.631  0.00  0.00     0.019 A 
HETATM   19  C           1     172.342 185.726 292.379  0.00  0.00     0.090 A 
HETATM   20  N           1     172.060 186.825 291.609  0.00  0.00    -0.364 N 
HETATM   21  C           1     171.252 187.976 292.036  0.00  0.00     0.155 C 
ENDBRANCH  15  16
ENDBRANCH  14  15
ENDBRANCH  12  14
ENDBRANCH  11  12
ENDBRANCH   9  11
BRANCH   8  22
HETATM   22  S           1     173.657 184.874 286.728  0.00  0.00    -0.114 SA
HETATM   23  C           1     175.439 185.209 286.654  0.00  0.00     0.097 C 
ENDBRANCH   8  22
TORSDOF 6
ENDMDL
MODEL 9
REMARK VINA RESULT:      -6.7      1.739      7.381
REMARK  6 active torsions:
REMARK  status: ('A' for Active; 'I' for Inactive)
REMARK    1  A    between atoms: C_8  and  S_21 
REMARK    2  A    between atoms: C_9  and  C_11 
REMARK    3  A    between atoms: C_11  and  N_12 
REMARK    4  A    between atoms: N_12  and  C_13 
REMARK    5  A    between atoms: C_13  and  C_14 
REMARK    6  A    between atoms: C_14  and  C_15 
ROOT
HETATM    1  C           1     174.514 184.784 282.889  0.00  0.00     0.001 A 
HETATM    2  C           1     173.408 185.544 282.522  0.00  0.00     0.002 A 
HETATM    3  C           1     172.698 186.254 283.496  0.00  0.00     0.032 A 
HETATM    4  C           1     173.066 186.226 284.835  0.00  0.00     0.068 A 
HETATM    5  C           1     174.187 185.452 285.201  0.00  0.00    -0.007 A 
HETATM    6  C           1     174.904 184.737 284.225  0.00  0.00     0.014 A 
HETATM    7  N           1     172.350 186.926 285.733  0.00  0.00    -0.241 NA
HETATM    8  C           1     172.734 186.876 287.027  0.00  0.00     0.101 A 
HETATM    9  C           1     173.818 186.149 287.483  0.00  0.00     0.006 A 
HETATM   10  C           1     174.555 185.425 286.553  0.00  0.00     0.025 A 
ENDROOT
BRANCH   9  11
HETATM   11  C           1     174.185 186.140 288.934  0.00  0.00     0.311 C 
BRANCH  11  12
HETATM   12  N           1     173.398 185.154 289.622  0.00  0.00     0.087 N 
HETATM   13  H           1     172.567 184.936 289.073  0.00  0.00     0.316 HD
BRANCH  12  14
HETATM   14  C           1     173.002 185.715 290.887  0.00  0.00     0.276 C 
BRANCH  14  15
HETATM   15  C           1     171.789 184.965 291.419  0.00  0.00     0.087 C 
BRANCH  15  16
HETATM   16  C           1     170.631 185.907 291.537  0.00  0.00     0.012 A 
HETATM   17  C           1     169.448 185.828 290.837  0.00  0.00     0.026 A 
HETATM   18  C           1     168.638 186.910 291.253  0.00  0.00     0.019 A 
HETATM   19  C           1     169.351 187.619 292.195  0.00  0.00     0.090 A 
HETATM   20  N           1     170.563 187.000 292.361  0.00  0.00    -0.364 N 
HETATM   21  C           1     171.623 187.441 293.279  0.00  0.00     0.155 C 
ENDBRANCH  15  16
ENDBRANCH  14  15
ENDBRANCH  12  14
ENDBRANCH  11  12
ENDBRANCH   9  11
BRANCH   8  22
HETATM   22  S           1     171.771 187.820 288.241  0.00  0.00    -0.114 SA
HETATM   23  C           1     170.170 187.239 287.611  0.00  0.00     0.097 C 
ENDBRANCH   8  22
TORSDOF 6
ENDMDL
