MODEL 1
REMARK VINA RESULT:      -8.9      0.000      0.000
REMARK  9 active torsions:
REMARK  status: ('A' for Active; 'I' for Inactive)
REMARK    1  A    between atoms: C_8  and  S_22 
REMARK    2  A    between atoms: C_9  and  C_11 
REMARK    3  A    between atoms: C_11  and  N_12 
REMARK    4  A    between atoms: N_12  and  C_13 
REMARK    5  A    between atoms: C_13  and  C_14 
REMARK    6  A    between atoms: C_14  and  C_15 
REMARK    7  A    between atoms: N_18  and  C_21 
REMARK    8  A    between atoms: S_22  and  C_23 
REMARK    9  A    between atoms: C_23  and  C_24 
ROOT
HETATM    1  C           1     171.562 191.711 282.111  0.00  0.00     0.001 A 
HETATM    2  C           1     170.577 191.528 281.146  0.00  0.00     0.002 A 
HETATM    3  C           1     170.573 190.367 280.367  0.00  0.00     0.032 A 
HETATM    4  C           1     171.534 189.376 280.526  0.00  0.00     0.068 A 
HETATM    5  C           1     172.531 189.568 281.507  0.00  0.00    -0.007 A 
HETATM    6  C           1     172.538 190.734 282.292  0.00  0.00     0.014 A 
HETATM    7  N           1     171.488 188.277 279.752  0.00  0.00    -0.241 NA
HETATM    8  C           1     172.438 187.334 279.934  0.00  0.00     0.102 A 
HETATM    9  C           1     173.454 187.431 280.867  0.00  0.00     0.006 A 
HETATM   10  C           1     173.498 188.567 281.665  0.00  0.00     0.025 A 
ENDROOT
BRANCH   9  11
HETATM   11  C           1     174.472 186.345 281.012  0.00  0.00     0.311 C 
BRANCH  11  12
HETATM   12  N           1     175.574 186.822 281.804  0.00  0.00     0.087 N 
HETATM   13  H           1     176.313 187.162 281.188  0.00  0.00     0.316 HD
BRANCH  12  14
HETATM   14  C           1     176.068 185.716 282.578  0.00  0.00     0.270 C 
BRANCH  14  15
HETATM   15  C           1     174.894 184.905 283.112  0.00  0.00     0.034 C 
BRANCH  15  16
HETATM   16  C           1     174.413 185.509 284.424  0.00  0.00    -0.010 C 
HETATM   17  C           1     172.888 185.549 284.429  0.00  0.00     0.035 C 
HETATM   18  C           1     172.349 185.964 285.796  0.00  0.00     0.273 C 
HETATM   19  N           1     172.855 185.094 286.859  0.00  0.00     0.093 N 
HETATM   20  C           1     174.318 185.110 286.910  0.00  0.00     0.273 C 
HETATM   21  C           1     174.930 184.663 285.584  0.00  0.00     0.035 C 
BRANCH  19  22
HETATM   22  C           1     172.368 185.649 288.092  0.00  0.00     0.223 C 
HETATM   23  C           1     173.459 185.664 289.152  0.00  0.00     0.036 C 
HETATM   24  C           1     173.130 186.848 290.060  0.00  0.00     0.002 C 
HETATM   25  C           1     172.030 187.638 289.355  0.00  0.00     0.002 C 
HETATM   26  C           1     172.019 187.118 287.926  0.00  0.00     0.036 C 
ENDBRANCH  19  22
ENDBRANCH  15  16
ENDBRANCH  14  15
ENDBRANCH  12  14
ENDBRANCH  11  12
ENDBRANCH   9  11
BRANCH   8  27
HETATM   27  S           1     172.377 185.850 278.891  0.00  0.00    -0.105 SA
BRANCH  27  28
HETATM   28  C           1     172.752 186.755 277.362  0.00  0.00     0.119 C 
BRANCH  28  29
HETATM   29  C           1     174.080 186.310 276.832  0.00  0.00    -0.049 A 
HETATM   30  C           1     174.139 185.377 275.796  0.00  0.00     0.008 A 
HETATM   31  C           1     175.375 184.963 275.301  0.00  0.00     0.001 A 
HETATM   32  C           1     176.553 185.480 275.842  0.00  0.00     0.000 A 
HETATM   33  C           1     176.492 186.412 276.878  0.00  0.00     0.001 A 
HETATM   34  C           1     175.256 186.827 277.372  0.00  0.00     0.008 A 
ENDBRANCH  28  29
ENDBRANCH  27  28
ENDBRANCH   8  27
TORSDOF 9
ENDMDL
MODEL 2
REMARK VINA RESULT:      -8.6      0.998      1.558
REMARK  9 active torsions:
REMARK  status: ('A' for Active; 'I' for Inactive)
REMARK    1  A    between atoms: C_8  and  S_22 
REMARK    2  A    between atoms: C_9  and  C_11 
REMARK    3  A    between atoms: C_11  and  N_12 
REMARK    4  A    between atoms: N_12  and  C_13 
REMARK    5  A    between atoms: C_13  and  C_14 
REMARK    6  A    between atoms: C_14  and  C_15 
REMARK    7  A    between atoms: N_18  and  C_21 
REMARK    8  A    between atoms: S_22  and  C_23 
REMARK    9  A    between atoms: C_23  and  C_24 
ROOT
HETATM    1  C           1     171.245 191.673 282.394  0.00  0.00     0.001 A 
HETATM    2  C           1     170.691 191.597 281.121  0.00  0.00     0.002 A 
HETATM    3  C           1     170.877 190.447 280.348  0.00  0.00     0.032 A 
HETATM    4  C           1     171.607 189.362 280.816  0.00  0.00     0.068 A 
HETATM    5  C           1     172.167 189.444 282.109  0.00  0.00    -0.007 A 
HETATM    6  C           1     171.982 190.599 282.889  0.00  0.00     0.014 A 
HETATM    7  N           1     171.757 188.278 280.034  0.00  0.00    -0.241 NA
HETATM    8  C           1     172.473 187.240 280.520  0.00  0.00     0.102 A 
HETATM    9  C           1     173.059 187.226 281.772  0.00  0.00     0.006 A 
HETATM   10  C           1     172.902 188.348 282.578  0.00  0.00     0.025 A 
ENDROOT
BRANCH   9  11
HETATM   11  C           1     173.839 186.040 282.245  0.00  0.00     0.311 C 
BRANCH  11  12
HETATM   12  N           1     175.166 186.453 282.613  0.00  0.00     0.087 N 
HETATM   13  H           1     175.842 186.035 281.973  0.00  0.00     0.316 HD
BRANCH  12  14
HETATM   14  C           1     175.417 185.980 283.948  0.00  0.00     0.270 C 
BRANCH  14  15
HETATM   15  C           1     174.552 184.757 284.225  0.00  0.00     0.034 C 
BRANCH  15  16
HETATM   16  C           1     174.097 184.774 285.678  0.00  0.00    -0.010 C 
HETATM   17  C           1     175.126 185.524 286.518  0.00  0.00     0.035 C 
HETATM   18  C           1     174.626 185.740 287.944  0.00  0.00     0.273 C 
HETATM   19  N           1     173.333 186.426 287.961  0.00  0.00     0.093 N 
HETATM   20  C           1     172.319 185.673 287.221  0.00  0.00     0.273 C 
HETATM   21  C           1     172.734 185.455 285.768  0.00  0.00     0.035 C 
BRANCH  19  22
HETATM   22  C           1     172.925 186.471 289.339  0.00  0.00     0.223 C 
HETATM   23  C           1     171.558 185.829 289.524  0.00  0.00     0.036 C 
HETATM   24  C           1     171.557 185.274 290.949  0.00  0.00     0.002 C 
HETATM   25  C           1     172.997 185.369 291.447  0.00  0.00     0.002 C 
HETATM   26  C           1     173.835 185.615 290.203  0.00  0.00     0.036 C 
ENDBRANCH  19  22
ENDBRANCH  15  16
ENDBRANCH  14  15
ENDBRANCH  12  14
ENDBRANCH  11  12
ENDBRANCH   9  11
BRANCH   8  27
HETATM   27  S           1     172.677 185.776 279.467  0.00  0.00    -0.105 SA
BRANCH  27  28
HETATM   28  C           1     172.801 186.740 277.934  0.00  0.00     0.119 C 
BRANCH  28  29
HETATM   29  C           1     174.037 186.337 277.190  0.00  0.00    -0.049 A 
HETATM   30  C           1     173.938 185.507 276.073  0.00  0.00     0.008 A 
HETATM   31  C           1     175.088 185.133 275.379  0.00  0.00     0.001 A 
HETATM   32  C           1     176.337 185.587 275.802  0.00  0.00     0.000 A 
HETATM   33  C           1     176.435 186.416 276.919  0.00  0.00     0.001 A 
HETATM   34  C           1     175.285 186.791 277.613  0.00  0.00     0.008 A 
ENDBRANCH  28  29
ENDBRANCH  27  28
ENDBRANCH   8  27
TORSDOF 9
ENDMDL
MODEL 3
REMARK VINA RESULT:      -8.5      1.889      5.257
REMARK  9 active torsions:
REMARK  status: ('A' for Active; 'I' for Inactive)
REMARK    1  A    between atoms: C_8  and  S_22 
REMARK    2  A    between atoms: C_9  and  C_11 
REMARK    3  A    between atoms: C_11  and  N_12 
REMARK    4  A    between atoms: N_12  and  C_13 
REMARK    5  A    between atoms: C_13  and  C_14 
REMARK    6  A    between atoms: C_14  and  C_15 
REMARK    7  A    between atoms: N_18  and  C_21 
REMARK    8  A    between atoms: S_22  and  C_23 
REMARK    9  A    between atoms: C_23  and  C_24 
ROOT
HETATM    1  C           1     177.513 186.450 274.823  0.00  0.00     0.001 A 
HETATM    2  C           1     176.639 185.773 273.979  0.00  0.00     0.002 A 
HETATM    3  C           1     175.355 185.444 274.425  0.00  0.00     0.032 A 
HETATM    4  C           1     174.918 185.775 275.701  0.00  0.00     0.068 A 
HETATM    5  C           1     175.809 186.462 276.553  0.00  0.00    -0.007 A 
HETATM    6  C           1     177.101 186.794 276.108  0.00  0.00     0.014 A 
HETATM    7  N           1     173.673 185.437 276.084  0.00  0.00    -0.241 NA
HETATM    8  C           1     173.280 185.774 277.332  0.00  0.00     0.102 A 
HETATM    9  C           1     174.079 186.446 278.237  0.00  0.00     0.006 A 
HETATM   10  C           1     175.364 186.795 277.839  0.00  0.00     0.025 A 
ENDROOT
BRANCH   9  11
HETATM   11  C           1     173.576 186.788 279.605  0.00  0.00     0.311 C 
BRANCH  11  12
HETATM   12  N           1     174.683 187.147 280.449  0.00  0.00     0.087 N 
HETATM   13  H           1     175.474 186.534 280.250  0.00  0.00     0.316 HD
BRANCH  12  14
HETATM   14  C           1     174.269 186.966 281.814  0.00  0.00     0.270 C 
BRANCH  14  15
HETATM   15  C           1     174.101 185.480 282.102  0.00  0.00     0.034 C 
BRANCH  15  16
HETATM   16  C           1     173.584 185.292 283.522  0.00  0.00    -0.010 C 
HETATM   17  C           1     174.768 185.131 284.470  0.00  0.00     0.035 C 
HETATM   18  C           1     174.315 185.135 285.928  0.00  0.00     0.273 C 
HETATM   19  N           1     173.545 186.338 286.247  0.00  0.00     0.093 N 
HETATM   20  C           1     172.364 186.460 285.392  0.00  0.00     0.273 C 
HETATM   21  C           1     172.745 186.505 283.914  0.00  0.00     0.035 C 
BRANCH  19  22
HETATM   22  C           1     173.090 186.172 287.600  0.00  0.00     0.223 C 
HETATM   23  C           1     174.176 185.550 288.467  0.00  0.00     0.036 C 
HETATM   24  C           1     173.923 186.078 289.879  0.00  0.00     0.002 C 
HETATM   25  C           1     172.882 187.187 289.743  0.00  0.00     0.002 C 
HETATM   26  C           1     172.843 187.518 288.260  0.00  0.00     0.036 C 
ENDBRANCH  19  22
ENDBRANCH  15  16
ENDBRANCH  14  15
ENDBRANCH  12  14
ENDBRANCH  11  12
ENDBRANCH   9  11
BRANCH   8  27
HETATM   27  S           1     171.601 185.318 277.850  0.00  0.00    -0.105 SA
BRANCH  27  28
HETATM   28  C           1     170.803 186.577 276.813  0.00  0.00     0.119 C 
BRANCH  28  29
HETATM   29  C           1     170.054 187.537 277.683  0.00  0.00    -0.049 A 
HETATM   30  C           1     168.688 187.358 277.903  0.00  0.00     0.008 A 
HETATM   31  C           1     167.989 188.252 278.714  0.00  0.00     0.001 A 
HETATM   32  C           1     168.655 189.326 279.304  0.00  0.00     0.000 A 
HETATM   33  C           1     170.021 189.505 279.083  0.00  0.00     0.001 A 
HETATM   34  C           1     170.720 188.610 278.273  0.00  0.00     0.008 A 
ENDBRANCH  28  29
ENDBRANCH  27  28
ENDBRANCH   8  27
TORSDOF 9
ENDMDL
MODEL 4
REMARK VINA RESULT:      -8.4      4.063      6.953
REMARK  9 active torsions:
REMARK  status: ('A' for Active; 'I' for Inactive)
REMARK    1  A    between atoms: C_8  and  S_22 
REMARK    2  A    between atoms: C_9  and  C_11 
REMARK    3  A    between atoms: C_11  and  N_12 
REMARK    4  A    between atoms: N_12  and  C_13 
REMARK    5  A    between atoms: C_13  and  C_14 
REMARK    6  A    between atoms: C_14  and  C_15 
REMARK    7  A    between atoms: N_18  and  C_21 
REMARK    8  A    between atoms: S_22  and  C_23 
REMARK    9  A    between atoms: C_23  and  C_24 
ROOT
HETATM    1  C           1     174.116 192.924 272.406  0.00  0.00     0.001 A 
HETATM    2  C           1     174.681 192.430 271.235  0.00  0.00     0.002 A 
HETATM    3  C           1     174.751 191.050 271.025  0.00  0.00     0.032 A 
HETATM    4  C           1     174.270 190.142 271.961  0.00  0.00     0.068 A 
HETATM    5  C           1     173.697 190.649 273.147  0.00  0.00    -0.007 A 
HETATM    6  C           1     173.625 192.037 273.361  0.00  0.00     0.014 A 
HETATM    7  N           1     174.360 188.823 271.712  0.00  0.00    -0.241 NA
HETATM    8  C           1     173.881 187.969 272.643  0.00  0.00     0.102 A 
HETATM    9  C           1     173.304 188.369 273.834  0.00  0.00     0.006 A 
HETATM   10  C           1     173.212 189.732 274.087  0.00  0.00     0.025 A 
ENDROOT
BRANCH   9  11
HETATM   11  C           1     172.794 187.364 274.819  0.00  0.00     0.311 C 
BRANCH  11  12
HETATM   12  N           1     171.695 187.929 275.555  0.00  0.00     0.087 N 
HETATM   13  H           1     171.927 188.882 275.834  0.00  0.00     0.316 HD
BRANCH  12  14
HETATM   14  C           1     171.496 187.122 276.729  0.00  0.00     0.270 C 
BRANCH  14  15
HETATM   15  C           1     172.558 186.032 276.784  0.00  0.00     0.034 C 
BRANCH  15  16
HETATM   16  C           1     173.109 185.929 278.199  0.00  0.00    -0.010 C 
HETATM   17  C           1     174.244 186.933 278.370  0.00  0.00     0.035 C 
HETATM   18  C           1     174.703 187.010 279.825  0.00  0.00     0.273 C 
HETATM   19  N           1     173.588 187.318 280.722  0.00  0.00     0.093 N 
HETATM   20  C           1     172.527 186.316 280.620  0.00  0.00     0.273 C 
HETATM   21  C           1     171.988 186.215 279.195  0.00  0.00     0.035 C 
BRANCH  19  22
HETATM   22  C           1     174.123 187.256 282.055  0.00  0.00     0.223 C 
HETATM   23  C           1     173.182 186.502 282.985  0.00  0.00     0.036 C 
HETATM   24  C           1     174.079 185.871 284.049  0.00  0.00     0.002 C 
HETATM   25  C           1     175.515 186.046 283.559  0.00  0.00     0.002 C 
HETATM   26  C           1     175.393 186.423 282.092  0.00  0.00     0.036 C 
ENDBRANCH  19  22
ENDBRANCH  15  16
ENDBRANCH  14  15
ENDBRANCH  12  14
ENDBRANCH  11  12
ENDBRANCH   9  11
BRANCH   8  27
HETATM   27  S           1     174.002 186.189 272.310  0.00  0.00    -0.105 SA
BRANCH  27  28
HETATM   28  C           1     175.817 186.178 272.339  0.00  0.00     0.119 C 
BRANCH  28  29
HETATM   29  C           1     176.292 185.875 273.727  0.00  0.00    -0.049 A 
HETATM   30  C           1     175.509 185.092 274.576  0.00  0.00     0.008 A 
HETATM   31  C           1     175.951 184.809 275.867  0.00  0.00     0.001 A 
HETATM   32  C           1     177.176 185.310 276.311  0.00  0.00     0.000 A 
HETATM   33  C           1     177.958 186.092 275.462  0.00  0.00     0.001 A 
HETATM   34  C           1     177.516 186.375 274.170  0.00  0.00     0.008 A 
ENDBRANCH  28  29
ENDBRANCH  27  28
ENDBRANCH   8  27
TORSDOF 9
ENDMDL
MODEL 5
REMARK VINA RESULT:      -8.1      2.535      5.418
REMARK  9 active torsions:
REMARK  status: ('A' for Active; 'I' for Inactive)
REMARK    1  A    between atoms: C_8  and  S_22 
REMARK    2  A    between atoms: C_9  and  C_11 
REMARK    3  A    between atoms: C_11  and  N_12 
REMARK    4  A    between atoms: N_12  and  C_13 
REMARK    5  A    between atoms: C_13  and  C_14 
REMARK    6  A    between atoms: C_14  and  C_15 
REMARK    7  A    between atoms: N_18  and  C_21 
REMARK    8  A    between atoms: S_22  and  C_23 
REMARK    9  A    between atoms: C_23  and  C_24 
ROOT
HETATM    1  C           1     174.020 184.547 286.875  0.00  0.00     0.001 A 
HETATM    2  C           1     174.980 184.294 285.901  0.00  0.00     0.002 A 
HETATM    3  C           1     174.971 185.024 284.709  0.00  0.00     0.032 A 
HETATM    4  C           1     174.022 186.008 284.461  0.00  0.00     0.068 A 
HETATM    5  C           1     173.051 186.261 285.453  0.00  0.00    -0.007 A 
HETATM    6  C           1     173.057 185.529 286.653  0.00  0.00     0.014 A 
HETATM    7  N           1     174.056 186.684 283.298  0.00  0.00    -0.241 NA
HETATM    8  C           1     173.118 187.634 283.090  0.00  0.00     0.102 A 
HETATM    9  C           1     172.128 187.953 284.000  0.00  0.00     0.006 A 
HETATM   10  C           1     172.096 187.254 285.201  0.00  0.00     0.025 A 
ENDROOT
BRANCH   9  11
HETATM   11  C           1     171.122 189.020 283.701  0.00  0.00     0.311 C 
BRANCH  11  12
HETATM   12  N           1     170.596 189.543 284.934  0.00  0.00     0.087 N 
HETATM   13  H           1     170.946 188.989 285.715  0.00  0.00     0.316 HD
BRANCH  12  14
HETATM   14  C           1     169.163 189.439 284.876  0.00  0.00     0.270 C 
BRANCH  14  15
HETATM   15  C           1     168.594 189.471 286.289  0.00  0.00     0.034 C 
BRANCH  15  16
HETATM   16  C           1     169.437 188.586 287.197  0.00  0.00    -0.010 C 
HETATM   17  C           1     169.789 189.359 288.464  0.00  0.00     0.035 C 
HETATM   18  C           1     170.466 188.457 289.494  0.00  0.00     0.273 C 
HETATM   19  N           1     169.644 187.286 289.803  0.00  0.00     0.093 N 
HETATM   20  C           1     169.365 186.497 288.603  0.00  0.00     0.273 C 
HETATM   21  C           1     168.647 187.326 287.542  0.00  0.00     0.035 C 
BRANCH  19  22
HETATM   22  C           1     170.431 186.473 290.690  0.00  0.00     0.223 C 
HETATM   23  C           1     171.834 186.265 290.139  0.00  0.00     0.036 C 
HETATM   24  C           1     172.731 186.085 291.363  0.00  0.00     0.002 C 
HETATM   25  C           1     171.883 186.459 292.576  0.00  0.00     0.002 C 
HETATM   26  C           1     170.674 187.186 292.009  0.00  0.00     0.036 C 
ENDBRANCH  19  22
ENDBRANCH  15  16
ENDBRANCH  14  15
ENDBRANCH  12  14
ENDBRANCH  11  12
ENDBRANCH   9  11
BRANCH   8  27
HETATM   27  S           1     173.162 188.547 281.522  0.00  0.00    -0.105 SA
BRANCH  27  28
HETATM   28  C           1     174.441 187.485 280.793  0.00  0.00     0.119 C 
BRANCH  28  29
HETATM   29  C           1     173.894 186.809 279.575  0.00  0.00    -0.049 A 
HETATM   30  C           1     172.707 186.080 279.656  0.00  0.00     0.008 A 
HETATM   31  C           1     172.196 185.450 278.521  0.00  0.00     0.001 A 
HETATM   32  C           1     172.872 185.549 277.305  0.00  0.00     0.000 A 
HETATM   33  C           1     174.059 186.277 277.225  0.00  0.00     0.001 A 
HETATM   34  C           1     174.569 186.907 278.359  0.00  0.00     0.008 A 
ENDBRANCH  28  29
ENDBRANCH  27  28
ENDBRANCH   8  27
TORSDOF 9
ENDMDL
MODEL 6
REMARK VINA RESULT:      -8.1      3.400     10.186
REMARK  9 active torsions:
REMARK  status: ('A' for Active; 'I' for Inactive)
REMARK    1  A    between atoms: C_8  and  S_22 
REMARK    2  A    between atoms: C_9  and  C_11 
REMARK    3  A    between atoms: C_11  and  N_12 
REMARK    4  A    between atoms: N_12  and  C_13 
REMARK    5  A    between atoms: C_13  and  C_14 
REMARK    6  A    between atoms: C_14  and  C_15 
REMARK    7  A    between atoms: N_18  and  C_21 
REMARK    8  A    between atoms: S_22  and  C_23 
REMARK    9  A    between atoms: C_23  and  C_24 
ROOT
HETATM    1  C           1     176.305 185.616 274.421  0.00  0.00     0.001 A 
HETATM    2  C           1     177.144 186.422 275.182  0.00  0.00     0.002 A 
HETATM    3  C           1     176.722 186.881 276.434  0.00  0.00     0.032 A 
HETATM    4  C           1     175.475 186.553 276.950  0.00  0.00     0.068 A 
HETATM    5  C           1     174.628 185.734 276.174  0.00  0.00    -0.007 A 
HETATM    6  C           1     175.049 185.271 274.914  0.00  0.00     0.014 A 
HETATM    7  N           1     175.115 187.019 278.160  0.00  0.00    -0.241 NA
HETATM    8  C           1     173.895 186.680 278.631  0.00  0.00     0.102 A 
HETATM    9  C           1     172.996 185.884 277.946  0.00  0.00     0.006 A 
HETATM   10  C           1     173.371 185.404 276.697  0.00  0.00     0.025 A 
ENDROOT
BRANCH   9  11
HETATM   11  C           1     171.660 185.550 278.533  0.00  0.00     0.311 C 
BRANCH  11  12
HETATM   12  N           1     170.624 185.911 277.603  0.00  0.00     0.087 N 
HETATM   13  H           1     170.947 185.740 276.651  0.00  0.00     0.316 HD
BRANCH  12  14
HETATM   14  C           1     170.354 187.313 277.773  0.00  0.00     0.270 C 
BRANCH  14  15
HETATM   15  C           1     169.409 187.786 276.676  0.00  0.00     0.034 C 
BRANCH  15  16
HETATM   16  C           1     170.216 188.209 275.457  0.00  0.00    -0.010 C 
HETATM   17  C           1     171.631 188.574 275.893  0.00  0.00     0.035 C 
HETATM   18  C           1     172.537 188.817 274.688  0.00  0.00     0.273 C 
HETATM   19  N           1     172.546 187.667 273.783  0.00  0.00     0.093 N 
HETATM   20  C           1     171.200 187.358 273.299  0.00  0.00     0.273 C 
HETATM   21  C           1     170.245 187.060 274.453  0.00  0.00     0.035 C 
BRANCH  19  22
HETATM   22  C           1     173.340 188.060 272.650  0.00  0.00     0.223 C 
HETATM   23  C           1     174.656 188.680 273.096  0.00  0.00     0.036 C 
HETATM   24  C           1     175.651 188.375 271.977  0.00  0.00     0.002 C 
HETATM   25  C           1     174.966 187.369 271.056  0.00  0.00     0.002 C 
HETATM   26  C           1     173.778 186.847 271.848  0.00  0.00     0.036 C 
ENDBRANCH  19  22
ENDBRANCH  15  16
ENDBRANCH  14  15
ENDBRANCH  12  14
ENDBRANCH  11  12
ENDBRANCH   9  11
BRANCH   8  27
HETATM   27  S           1     173.407 187.308 280.263  0.00  0.00    -0.105 SA
BRANCH  27  28
HETATM   28  C           1     174.839 186.583 281.110  0.00  0.00     0.119 C 
BRANCH  28  29
HETATM   29  C           1     174.413 186.048 282.442  0.00  0.00    -0.049 A 
HETATM   30  C           1     175.373 185.659 283.376  0.00  0.00     0.008 A 
HETATM   31  C           1     174.977 185.161 284.617  0.00  0.00     0.001 A 
HETATM   32  C           1     173.620 185.051 284.924  0.00  0.00     0.000 A 
HETATM   33  C           1     172.661 185.440 283.989  0.00  0.00     0.001 A 
HETATM   34  C           1     173.058 185.939 282.749  0.00  0.00     0.008 A 
ENDBRANCH  28  29
ENDBRANCH  27  28
ENDBRANCH   8  27
TORSDOF 9
ENDMDL
MODEL 7
REMARK VINA RESULT:      -8.0      2.233      5.943
REMARK  9 active torsions:
REMARK  status: ('A' for Active; 'I' for Inactive)
REMARK    1  A    between atoms: C_8  and  S_22 
REMARK    2  A    between atoms: C_9  and  C_11 
REMARK    3  A    between atoms: C_11  and  N_12 
REMARK    4  A    between atoms: N_12  and  C_13 
REMARK    5  A    between atoms: C_13  and  C_14 
REMARK    6  A    between atoms: C_14  and  C_15 
REMARK    7  A    between atoms: N_18  and  C_21 
REMARK    8  A    between atoms: S_22  and  C_23 
REMARK    9  A    between atoms: C_23  and  C_24 
ROOT
HETATM    1  C           1     171.985 185.400 277.763  0.00  0.00     0.001 A 
HETATM    2  C           1     171.239 186.547 277.516  0.00  0.00     0.002 A 
HETATM    3  C           1     171.216 187.579 278.459  0.00  0.00     0.032 A 
HETATM    4  C           1     171.923 187.496 279.652  0.00  0.00     0.068 A 
HETATM    5  C           1     172.679 186.329 279.897  0.00  0.00    -0.007 A 
HETATM    6  C           1     172.705 185.289 278.951  0.00  0.00     0.014 A 
HETATM    7  N           1     171.870 188.516 280.527  0.00  0.00    -0.241 NA
HETATM    8  C           1     172.570 188.401 281.677  0.00  0.00     0.102 A 
HETATM    9  C           1     173.338 187.300 282.007  0.00  0.00     0.006 A 
HETATM   10  C           1     173.392 186.249 281.100  0.00  0.00     0.025 A 
ENDROOT
BRANCH   9  11
HETATM   11  C           1     174.088 187.244 283.301  0.00  0.00     0.311 C 
BRANCH  11  12
HETATM   12  N           1     175.311 186.510 283.115  0.00  0.00     0.087 N 
HETATM   13  H           1     175.203 185.862 282.334  0.00  0.00     0.316 HD
BRANCH  12  14
HETATM   14  C           1     175.564 185.769 284.321  0.00  0.00     0.270 C 
BRANCH  14  15
HETATM   15  C           1     174.470 184.728 284.518  0.00  0.00     0.034 C 
BRANCH  15  16
HETATM   16  C           1     174.020 184.731 285.972  0.00  0.00    -0.010 C 
HETATM   17  C           1     174.979 185.588 286.792  0.00  0.00     0.035 C 
HETATM   18  C           1     174.466 185.785 288.217  0.00  0.00     0.273 C 
HETATM   19  N           1     173.115 186.350 288.228  0.00  0.00     0.093 N 
HETATM   20  C           1     172.173 185.494 287.507  0.00  0.00     0.273 C 
HETATM   21  C           1     172.601 185.287 286.056  0.00  0.00     0.035 C 
BRANCH  19  22
HETATM   22  C           1     172.710 186.384 289.607  0.00  0.00     0.223 C 
HETATM   23  C           1     171.357 185.713 289.794  0.00  0.00     0.036 C 
HETATM   24  C           1     171.371 185.156 291.217  0.00  0.00     0.002 C 
HETATM   25  C           1     172.809 185.279 291.712  0.00  0.00     0.002 C 
HETATM   26  C           1     173.639 185.545 290.467  0.00  0.00     0.036 C 
ENDBRANCH  19  22
ENDBRANCH  15  16
ENDBRANCH  14  15
ENDBRANCH  12  14
ENDBRANCH  11  12
ENDBRANCH   9  11
BRANCH   8  27
HETATM   27  S           1     172.498 189.776 282.860  0.00  0.00    -0.105 SA
BRANCH  27  28
HETATM   28  C           1     171.000 190.494 282.129  0.00  0.00     0.119 C 
BRANCH  28  29
HETATM   29  C           1     170.359 191.421 283.114  0.00  0.00    -0.049 A 
HETATM   30  C           1     170.866 192.708 283.292  0.00  0.00     0.008 A 
HETATM   31  C           1     170.269 193.572 284.209  0.00  0.00     0.001 A 
HETATM   32  C           1     169.165 193.150 284.949  0.00  0.00     0.000 A 
HETATM   33  C           1     168.658 191.862 284.771  0.00  0.00     0.001 A 
HETATM   34  C           1     169.255 190.999 283.853  0.00  0.00     0.008 A 
ENDBRANCH  28  29
ENDBRANCH  27  28
ENDBRANCH   8  27
TORSDOF 9
ENDMDL
MODEL 8
REMARK VINA RESULT:      -7.9      2.187      9.423
REMARK  9 active torsions:
REMARK  status: ('A' for Active; 'I' for Inactive)
REMARK    1  A    between atoms: C_8  and  S_22 
REMARK    2  A    between atoms: C_9  and  C_11 
REMARK    3  A    between atoms: C_11  and  N_12 
REMARK    4  A    between atoms: N_12  and  C_13 
REMARK    5  A    between atoms: C_13  and  C_14 
REMARK    6  A    between atoms: C_14  and  C_15 
REMARK    7  A    between atoms: N_18  and  C_21 
REMARK    8  A    between atoms: S_22  and  C_23 
REMARK    9  A    between atoms: C_23  and  C_24 
ROOT
HETATM    1  C           1     171.266 185.209 287.455  0.00  0.00     0.001 A 
HETATM    2  C           1     171.172 186.573 287.708  0.00  0.00     0.002 A 
HETATM    3  C           1     171.649 187.490 286.767  0.00  0.00     0.032 A 
HETATM    4  C           1     172.221 187.079 285.569  0.00  0.00     0.068 A 
HETATM    5  C           1     172.313 185.693 285.317  0.00  0.00    -0.007 A 
HETATM    6  C           1     171.834 184.768 286.262  0.00  0.00     0.014 A 
HETATM    7  N           1     172.664 188.001 284.695  0.00  0.00    -0.241 NA
HETATM    8  C           1     173.215 187.565 283.541  0.00  0.00     0.102 A 
HETATM    9  C           1     173.349 186.231 283.204  0.00  0.00     0.006 A 
HETATM   10  C           1     172.889 185.282 284.109  0.00  0.00     0.025 A 
ENDROOT
BRANCH   9  11
HETATM   11  C           1     173.970 185.823 281.905  0.00  0.00     0.311 C 
BRANCH  11  12
HETATM   12  N           1     172.939 185.428 280.984  0.00  0.00     0.087 N 
HETATM   13  H           1     172.957 184.415 280.867  0.00  0.00     0.316 HD
BRANCH  12  14
HETATM   14  C           1     173.215 186.060 279.722  0.00  0.00     0.270 C 
BRANCH  14  15
HETATM   15  C           1     172.021 185.885 278.793  0.00  0.00     0.034 C 
BRANCH  15  16
HETATM   16  C           1     172.513 185.634 277.374  0.00  0.00    -0.010 C 
HETATM   17  C           1     171.932 186.696 276.446  0.00  0.00     0.035 C 
HETATM   18  C           1     172.546 186.609 275.051  0.00  0.00     0.273 C 
HETATM   19  N           1     174.006 186.697 275.101  0.00  0.00     0.093 N 
HETATM   20  C           1     174.577 185.634 275.929  0.00  0.00     0.273 C 
HETATM   21  C           1     174.038 185.686 277.357  0.00  0.00     0.035 C 
BRANCH  19  22
HETATM   22  C           1     174.463 186.496 273.753  0.00  0.00     0.223 C 
HETATM   23  C           1     175.977 186.344 273.708  0.00  0.00     0.036 C 
HETATM   24  C           1     176.261 185.452 272.500  0.00  0.00     0.002 C 
HETATM   25  C           1     174.912 184.898 272.048  0.00  0.00     0.002 C 
HETATM   26  C           1     173.961 185.173 273.202  0.00  0.00     0.036 C 
ENDBRANCH  19  22
ENDBRANCH  15  16
ENDBRANCH  14  15
ENDBRANCH  12  14
ENDBRANCH  11  12
ENDBRANCH   9  11
BRANCH   8  27
HETATM   27  S           1     173.814 188.807 282.361  0.00  0.00    -0.105 SA
BRANCH  27  28
HETATM   28  C           1     172.173 189.101 281.642  0.00  0.00     0.119 C 
BRANCH  28  29
HETATM   29  C           1     171.604 190.368 282.200  0.00  0.00    -0.049 A 
HETATM   30  C           1     172.151 191.598 281.832  0.00  0.00     0.008 A 
HETATM   31  C           1     171.621 192.779 282.350  0.00  0.00     0.001 A 
HETATM   32  C           1     170.545 192.731 283.237  0.00  0.00     0.000 A 
HETATM   33  C           1     169.999 191.501 283.604  0.00  0.00     0.001 A 
HETATM   34  C           1     170.529 190.320 283.085  0.00  0.00     0.008 A 
ENDBRANCH  28  29
ENDBRANCH  27  28
ENDBRANCH   8  27
TORSDOF 9
ENDMDL
MODEL 9
REMARK VINA RESULT:      -7.9      8.442     12.160
REMARK  9 active torsions:
REMARK  status: ('A' for Active; 'I' for Inactive)
REMARK    1  A    between atoms: C_8  and  S_22 
REMARK    2  A    between atoms: C_9  and  C_11 
REMARK    3  A    between atoms: C_11  and  N_12 
REMARK    4  A    between atoms: N_12  and  C_13 
REMARK    5  A    between atoms: C_13  and  C_14 
REMARK    6  A    between atoms: C_14  and  C_15 
REMARK    7  A    between atoms: N_18  and  C_21 
REMARK    8  A    between atoms: S_22  and  C_23 
REMARK    9  A    between atoms: C_23  and  C_24 
ROOT
HETATM    1  C           1     178.041 185.749 276.250  0.00  0.00     0.001 A 
HETATM    2  C           1     177.045 184.830 276.564  0.00  0.00     0.002 A 
HETATM    3  C           1     175.897 184.749 275.771  0.00  0.00     0.032 A 
HETATM    4  C           1     175.715 185.567 274.663  0.00  0.00     0.068 A 
HETATM    5  C           1     176.729 186.497 274.348  0.00  0.00    -0.007 A 
HETATM    6  C           1     177.885 186.582 275.144  0.00  0.00     0.014 A 
HETATM    7  N           1     174.593 185.450 273.930  0.00  0.00    -0.241 NA
HETATM    8  C           1     174.448 186.261 272.859  0.00  0.00     0.102 A 
HETATM    9  C           1     175.384 187.202 272.472  0.00  0.00     0.006 A 
HETATM   10  C           1     176.542 187.319 273.230  0.00  0.00     0.025 A 
ENDROOT
BRANCH   9  11
HETATM   11  C           1     175.156 188.066 271.271  0.00  0.00     0.311 C 
BRANCH  11  12
HETATM   12  N           1     175.947 189.262 271.383  0.00  0.00     0.087 N 
HETATM   13  H           1     175.770 189.704 272.285  0.00  0.00     0.316 HD
BRANCH  12  14
HETATM   14  C           1     175.546 190.151 270.327  0.00  0.00     0.270 C 
BRANCH  14  15
HETATM   15  C           1     175.876 191.586 270.717  0.00  0.00     0.034 C 
BRANCH  15  16
HETATM   16  C           1     174.588 192.389 270.840  0.00  0.00    -0.010 C 
HETATM   17  C           1     173.395 191.449 270.697  0.00  0.00     0.035 C 
HETATM   18  C           1     172.084 192.167 271.006  0.00  0.00     0.273 C 
HETATM   19  N           1     172.110 192.786 272.332  0.00  0.00     0.093 N 
HETATM   20  C           1     173.207 193.747 272.452  0.00  0.00     0.273 C 
HETATM   21  C           1     174.560 193.086 272.197  0.00  0.00     0.035 C 
BRANCH  19  22
HETATM   22  C           1     170.876 193.512 272.457  0.00  0.00     0.223 C 
HETATM   23  C           1     170.404 193.540 273.903  0.00  0.00     0.036 C 
HETATM   24  C           1     169.614 194.840 274.050  0.00  0.00     0.002 C 
HETATM   25  C           1     169.876 195.648 272.781  0.00  0.00     0.002 C 
HETATM   26  C           1     171.075 194.981 272.125  0.00  0.00     0.036 C 
ENDBRANCH  19  22
ENDBRANCH  15  16
ENDBRANCH  14  15
ENDBRANCH  12  14
ENDBRANCH  11  12
ENDBRANCH   9  11
BRANCH   8  27
HETATM   27  S           1     172.935 186.106 271.870  0.00  0.00    -0.105 SA
BRANCH  27  28
HETATM   28  C           1     173.109 184.312 271.653  0.00  0.00     0.119 C 
BRANCH  28  29
HETATM   29  C           1     174.294 184.028 270.783  0.00  0.00    -0.049 A 
HETATM   30  C           1     175.215 183.049 271.158  0.00  0.00     0.008 A 
HETATM   31  C           1     176.319 182.783 270.348  0.00  0.00     0.001 A 
HETATM   32  C           1     176.502 183.497 269.163  0.00  0.00     0.000 A 
HETATM   33  C           1     175.581 184.475 268.789  0.00  0.00     0.001 A 
HETATM   34  C           1     174.478 184.740 269.599  0.00  0.00     0.008 A 
ENDBRANCH  28  29
ENDBRANCH  27  28
ENDBRANCH   8  27
TORSDOF 9
ENDMDL
