REMARK  8 active torsions:
REMARK  status: ('A' for Active; 'I' for Inactive)
REMARK    1  A    between atoms: C_8  and  S_22 
REMARK    2  A    between atoms: C_9  and  C_11 
REMARK    3  A    between atoms: C_11  and  N_12 
REMARK    4  A    between atoms: N_12  and  C_13 
REMARK    5  A    between atoms: C_13  and  C_14 
REMARK    6  A    between atoms: C_14  and  N_15 
REMARK    7  A    between atoms: S_22  and  C_23 
REMARK    8  A    between atoms: C_23  and  C_24 
ROOT
HETATM    1  C           1      -2.757  -7.130  -1.358  0.00  0.00     0.001 A 
HETATM    2  C           1      -1.404  -7.319  -1.618  0.00  0.00     0.002 A 
HETATM    3  C           1      -0.507  -6.260  -1.449  0.00  0.00     0.032 A 
HETATM    4  C           1      -0.928  -5.007  -1.024  0.00  0.00     0.068 A 
HETATM    5  C           1      -2.302  -4.820  -0.761  0.00  0.00    -0.007 A 
HETATM    6  C           1      -3.207  -5.883  -0.930  0.00  0.00     0.014 A 
HETATM    7  N           1      -0.026  -4.019  -0.877  0.00  0.00    -0.241 NA
HETATM    8  C           1      -0.470  -2.813  -0.461  0.00  0.00     0.102 A 
HETATM    9  C           1      -1.794  -2.532  -0.179  0.00  0.00     0.006 A 
HETATM   10  C           1      -2.723  -3.554  -0.332  0.00  0.00     0.025 A 
ENDROOT
BRANCH   9  11
HETATM   11  C           1      -2.213  -1.170   0.278  0.00  0.00     0.311 C 
BRANCH  11  12
HETATM   12  N           1      -1.061  -0.312   0.350  0.00  0.00     0.089 N 
HETATM   13  H           1      -0.397  -0.691   1.025  0.00  0.00     0.316 HD
BRANCH  12  14
HETATM   14  C           1      -1.507   0.982   0.791  0.00  0.00     0.300 C 
BRANCH  14  15
HETATM   15  C           1      -0.316   1.926   0.882  0.00  0.00     0.302 C 
BRANCH  15  16
HETATM   16  N           1      -0.761   3.220   1.323  0.00  0.00     0.093 N 
HETATM   17  C           1       0.430   4.085   1.391  0.00  0.00     0.302 C 
HETATM   18  C           1       0.083   5.574   1.604  0.00  0.00     0.302 C 
HETATM   19  N           1      -0.846   6.098   0.587  0.00  0.00     0.087 N 
HETATM   20  C           1      -1.272   7.396   1.038  0.00  0.00     0.310 C 
HETATM   21  C           1      -2.037   5.234   0.519  0.00  0.00     0.302 C 
HETATM   22  C           1      -1.690   3.745   0.306  0.00  0.00     0.302 C 
ENDBRANCH  15  16
ENDBRANCH  14  15
ENDBRANCH  12  14
ENDBRANCH  11  12
ENDBRANCH   9  11
BRANCH   8  23
HETATM   23  S           1       0.745  -1.479  -0.262  0.00  0.00    -0.105 SA
BRANCH  23  24
HETATM   24  C           1       2.149  -2.510  -0.772  0.00  0.00     0.119 C 
BRANCH  24  25
HETATM   25  C           1       3.406  -1.699  -0.730  0.00  0.00    -0.049 A 
HETATM   26  C           1       4.624  -2.280  -1.083  0.00  0.00     0.008 A 
HETATM   27  C           1       5.795  -1.524  -1.043  0.00  0.00     0.001 A 
HETATM   28  C           1       5.749  -0.186  -0.650  0.00  0.00     0.000 A 
HETATM   29  C           1       4.531   0.395  -0.298  0.00  0.00     0.001 A 
HETATM   30  C           1       3.360  -0.361  -0.337  0.00  0.00     0.008 A 
ENDBRANCH  24  25
ENDBRANCH  23  24
ENDBRANCH   8  23
TORSDOF 8
