REMARK  9 active torsions:
REMARK  status: ('A' for Active; 'I' for Inactive)
REMARK    1  A    between atoms: C_8  and  S_22 
REMARK    2  A    between atoms: C_9  and  C_11 
REMARK    3  A    between atoms: C_11  and  N_12 
REMARK    4  A    between atoms: N_12  and  C_13 
REMARK    5  A    between atoms: C_13  and  C_14 
REMARK    6  A    between atoms: C_14  and  C_15 
REMARK    7  A    between atoms: N_18  and  C_21 
REMARK    8  A    between atoms: S_22  and  C_23 
REMARK    9  A    between atoms: C_23  and  C_24 
ROOT
HETATM    1  C           1      -2.864  -8.490  -1.952  0.00  0.00     0.001 A 
HETATM    2  C           1      -1.511  -8.680  -2.212  0.00  0.00     0.002 A 
HETATM    3  C           1      -0.614  -7.621  -2.043  0.00  0.00     0.032 A 
HETATM    4  C           1      -1.035  -6.367  -1.618  0.00  0.00     0.068 A 
HETATM    5  C           1      -2.409  -6.180  -1.355  0.00  0.00    -0.007 A 
HETATM    6  C           1      -3.314  -7.243  -1.524  0.00  0.00     0.014 A 
HETATM    7  N           1      -0.133  -5.380  -1.470  0.00  0.00    -0.241 NA
HETATM    8  C           1      -0.577  -4.173  -1.055  0.00  0.00     0.102 A 
HETATM    9  C           1      -1.901  -3.893  -0.773  0.00  0.00     0.006 A 
HETATM   10  C           1      -2.830  -4.915  -0.926  0.00  0.00     0.025 A 
ENDROOT
BRANCH   9  11
HETATM   11  C           1      -2.320  -2.531  -0.316  0.00  0.00     0.311 C 
BRANCH  11  12
HETATM   12  N           1      -1.168  -1.673  -0.244  0.00  0.00     0.087 N 
HETATM   13  H           1      -0.504  -2.052   0.431  0.00  0.00     0.316 HD
BRANCH  12  14
HETATM   14  C           1      -1.614  -0.379   0.197  0.00  0.00     0.270 C 
BRANCH  14  15
HETATM   15  C           1      -0.423   0.566   0.288  0.00  0.00     0.034 C 
BRANCH  15  16
HETATM   16  C           1      -0.895   1.936   0.756  0.00  0.00    -0.010 C 
HETATM   17  C           1      -0.202   2.284   2.069  0.00  0.00     0.035 C 
HETATM   18  C           1      -0.489   3.726   2.482  0.00  0.00     0.273 C 
HETATM   19  N           1      -0.120   4.670   1.426  0.00  0.00     0.093 N 
HETATM   20  C           1      -0.839   4.389   0.183  0.00  0.00     0.273 C 
HETATM   21  C           1      -0.564   2.972  -0.315  0.00  0.00     0.035 C 
BRANCH  19  22
HETATM   22  C           1      -0.535   5.966   1.889  0.00  0.00     0.223 C 
HETATM   23  C           1       0.579   6.648   2.670  0.00  0.00     0.036 C 
HETATM   24  C           1       0.363   8.147   2.465  0.00  0.00     0.002 C 
HETATM   25  C           1      -0.689   8.283   1.367  0.00  0.00     0.002 C 
HETATM   26  C           1      -0.773   6.909   0.722  0.00  0.00     0.036 C 
ENDBRANCH  19  22
ENDBRANCH  15  16
ENDBRANCH  14  15
ENDBRANCH  12  14
ENDBRANCH  11  12
ENDBRANCH   9  11
BRANCH   8  27
HETATM   27  S           1       0.638  -2.840  -0.855  0.00  0.00    -0.105 SA
BRANCH  27  28
HETATM   28  C           1       2.042  -3.871  -1.366  0.00  0.00     0.119 C 
BRANCH  28  29
HETATM   29  C           1       3.299  -3.059  -1.323  0.00  0.00    -0.049 A 
HETATM   30  C           1       4.517  -3.641  -1.676  0.00  0.00     0.008 A 
HETATM   31  C           1       5.688  -2.885  -1.637  0.00  0.00     0.001 A 
HETATM   32  C           1       5.642  -1.547  -1.244  0.00  0.00     0.000 A 
HETATM   33  C           1       4.424  -0.966  -0.891  0.00  0.00     0.001 A 
HETATM   34  C           1       3.253  -1.722  -0.931  0.00  0.00     0.008 A 
ENDBRANCH  28  29
ENDBRANCH  27  28
ENDBRANCH   8  27
TORSDOF 9
