REMARK  7 active torsions:
REMARK  status: ('A' for Active; 'I' for Inactive)
REMARK    1  A    between atoms: C_8  and  S_20 
REMARK    2  A    between atoms: C_9  and  C_11 
REMARK    3  A    between atoms: C_11  and  N_12 
REMARK    4  A    between atoms: N_12  and  C_13 
REMARK    5  A    between atoms: C_13  and  C_14 
REMARK    6  A    between atoms: S_20  and  C_21 
REMARK    7  A    between atoms: C_21  and  C_22 
ROOT
HETATM    1  C           1      -3.257  -5.599  -1.137  0.00  0.00     0.001 A 
HETATM    2  C           1      -1.904  -5.788  -1.398  0.00  0.00     0.002 A 
HETATM    3  C           1      -1.007  -4.729  -1.229  0.00  0.00     0.032 A 
HETATM    4  C           1      -1.428  -3.476  -0.803  0.00  0.00     0.068 A 
HETATM    5  C           1      -2.802  -3.289  -0.540  0.00  0.00    -0.007 A 
HETATM    6  C           1      -3.707  -4.351  -0.709  0.00  0.00     0.014 A 
HETATM    7  N           1      -0.526  -2.488  -0.656  0.00  0.00    -0.241 NA
HETATM    8  C           1      -0.970  -1.282  -0.240  0.00  0.00     0.102 A 
HETATM    9  C           1      -2.294  -1.001   0.042  0.00  0.00     0.006 A 
HETATM   10  C           1      -3.223  -2.023  -0.111  0.00  0.00     0.025 A 
ENDROOT
BRANCH   9  11
HETATM   11  C           1      -2.713   0.361   0.499  0.00  0.00     0.311 C 
BRANCH  11  12
HETATM   12  N           1      -1.561   1.219   0.571  0.00  0.00     0.091 N 
HETATM   13  H           1      -0.897   0.840   1.246  0.00  0.00     0.316 HD
BRANCH  12  14
HETATM   14  C           1      -2.007   2.513   1.012  0.00  0.00     0.308 C 
BRANCH  14  15
HETATM   15  C           1      -0.836   3.441   1.101  0.00  0.00    -0.028 A 
HETATM   16  C           1      -0.910   4.594   1.877  0.00  0.00     0.028 A 
HETATM   17  C           1       0.200   5.422   1.928  0.00  0.00     0.116 A 
HETATM   18  N           1       1.352   5.176   1.268  0.00  0.00    -0.273 NA
HETATM   19  C           1       1.395   4.049   0.524  0.00  0.00     0.116 A 
HETATM   20  C           1       0.338   3.160   0.410  0.00  0.00     0.028 A 
ENDBRANCH  14  15
ENDBRANCH  12  14
ENDBRANCH  11  12
ENDBRANCH   9  11
BRANCH   8  21
HETATM   21  S           1       0.245   0.052  -0.041  0.00  0.00    -0.105 SA
BRANCH  21  22
HETATM   22  C           1       1.649  -0.979  -0.552  0.00  0.00     0.119 C 
BRANCH  22  23
HETATM   23  C           1       2.906  -0.167  -0.509  0.00  0.00    -0.049 A 
HETATM   24  C           1       4.039  -0.600  -1.199  0.00  0.00     0.008 A 
HETATM   25  C           1       5.210   0.156  -1.159  0.00  0.00     0.001 A 
HETATM   26  C           1       5.249   1.345  -0.430  0.00  0.00     0.000 A 
HETATM   27  C           1       4.116   1.777   0.260  0.00  0.00     0.001 A 
HETATM   28  C           1       2.945   1.021   0.220  0.00  0.00     0.008 A 
ENDBRANCH  22  23
ENDBRANCH  21  22
ENDBRANCH   8  21
TORSDOF 7
