REMARK  4 active torsions:
REMARK  status: ('A' for Active; 'I' for Inactive)
REMARK    1  A    between atoms: C_8  and  S_12 
REMARK    2  A    between atoms: C_9  and  C_11 
REMARK    3  A    between atoms: S_12  and  C_14 
REMARK    4  A    between atoms: C_14  and  C_15 
ROOT
HETATM    1  C           1      -3.500  -4.001  -0.621  0.00  0.00     0.001 A 
HETATM    2  C           1      -2.147  -4.190  -0.881  0.00  0.00     0.002 A 
HETATM    3  C           1      -1.250  -3.131  -0.712  0.00  0.00     0.032 A 
HETATM    4  C           1      -1.671  -1.878  -0.287  0.00  0.00     0.068 A 
HETATM    5  C           1      -3.045  -1.691  -0.024  0.00  0.00    -0.006 A 
HETATM    6  C           1      -3.950  -2.754  -0.193  0.00  0.00     0.014 A 
HETATM    7  N           1      -0.769  -0.890  -0.140  0.00  0.00    -0.240 NA
HETATM    8  C           1      -1.213   0.316   0.276  0.00  0.00     0.107 A 
HETATM    9  C           1      -2.537   0.597   0.558  0.00  0.00     0.038 A 
HETATM   10  C           1      -3.466  -0.425   0.405  0.00  0.00     0.031 A 
ENDROOT
BRANCH   8  11
HETATM   11  S           1       0.002   1.650   0.475  0.00  0.00    -0.105 SA
BRANCH  11  12
HETATM   12  C           1       1.406   0.619  -0.035  0.00  0.00     0.119 C 
BRANCH  12  13
HETATM   13  C           1       2.663   1.430   0.007  0.00  0.00    -0.049 A 
HETATM   14  C           1       3.881   0.849  -0.346  0.00  0.00     0.008 A 
HETATM   15  C           1       5.052   1.605  -0.306  0.00  0.00     0.001 A 
HETATM   16  C           1       5.006   2.943   0.087  0.00  0.00     0.000 A 
HETATM   17  C           1       3.788   3.524   0.439  0.00  0.00     0.001 A 
HETATM   18  C           1       2.617   2.768   0.400  0.00  0.00     0.008 A 
ENDBRANCH  12  13
ENDBRANCH  11  12
ENDBRANCH   8  11
BRANCH   9  19
HETATM   19  C           1      -2.915   1.826   0.970  0.00  0.00     0.272 C 
HETATM   20  O           1      -4.077   2.051   1.212  0.00  0.00    -0.301 OA
ENDBRANCH   9  19
TORSDOF 4
