REMARK  9 active torsions:
REMARK  status: ('A' for Active; 'I' for Inactive)
REMARK    1  A    between atoms: C_8  and  S_12 
REMARK    2  A    between atoms: C_9  and  C_11 
REMARK    3  A    between atoms: C_11  and  N_13 
REMARK    4  A    between atoms: S_12  and  C_27 
REMARK    5  A    between atoms: N_13  and  C_14 
REMARK    6  A    between atoms: C_14  and  C_15 
REMARK    7  A    between atoms: C_18  and  C_21 
REMARK    8  A    between atoms: C_21  and  N_22 
REMARK    9  A    between atoms: C_27  and  C_28 
ROOT
HETATM    1  C           1      -3.883  -7.590  -1.452  0.00  0.00     0.001 A 
HETATM    2  C           1      -2.531  -7.779  -1.713  0.00  0.00     0.002 A 
HETATM    3  C           1      -1.634  -6.720  -1.544  0.00  0.00     0.032 A 
HETATM    4  C           1      -2.055  -5.467  -1.118  0.00  0.00     0.068 A 
HETATM    5  C           1      -3.429  -5.280  -0.856  0.00  0.00    -0.007 A 
HETATM    6  C           1      -4.334  -6.343  -1.024  0.00  0.00     0.014 A 
HETATM    7  N           1      -1.153  -4.479  -0.971  0.00  0.00    -0.241 NA
HETATM    8  C           1      -1.597  -3.273  -0.556  0.00  0.00     0.102 A 
HETATM    9  C           1      -2.920  -2.992  -0.273  0.00  0.00     0.006 A 
HETATM   10  C           1      -3.850  -4.014  -0.427  0.00  0.00     0.025 A 
ENDROOT
BRANCH   9  11
HETATM   11  C           1      -3.340  -1.630   0.183  0.00  0.00     0.311 C 
BRANCH  11  12
HETATM   12  N           1      -2.188  -0.772   0.256  0.00  0.00     0.091 N 
HETATM   13  H           1      -1.524  -1.151   0.930  0.00  0.00     0.316 HD
BRANCH  12  14
HETATM   14  C           1      -2.634   0.522   0.697  0.00  0.00     0.308 C 
BRANCH  14  15
HETATM   15  C           1      -1.463   1.450   0.786  0.00  0.00    -0.030 A 
HETATM   16  C           1      -1.559   2.625   1.532  0.00  0.00     0.009 A 
HETATM   17  C           1      -0.468   3.490   1.615  0.00  0.00     0.009 A 
HETATM   18  C           1       0.720   3.180   0.953  0.00  0.00    -0.030 A 
HETATM   19  C           1       0.816   2.005   0.207  0.00  0.00     0.009 A 
HETATM   20  C           1      -0.275   1.140   0.123  0.00  0.00     0.009 A 
BRANCH  18  21
HETATM   21  C           1       1.891   4.108   1.042  0.00  0.00     0.311 C 
BRANCH  21  22
HETATM   22  N           1       1.546   5.239   1.861  0.00  0.00     0.092 N 
HETATM   23  C           1       2.697   6.134   1.939  0.00  0.00     0.273 C 
HETATM   24  C           1       2.725   6.805   0.577  0.00  0.00     0.032 C 
HETATM   25  C           1       1.293   6.723   0.063  0.00  0.00     0.032 C 
HETATM   26  C           1       0.521   6.002   1.155  0.00  0.00     0.273 C 
ENDBRANCH  21  22
ENDBRANCH  18  21
ENDBRANCH  14  15
ENDBRANCH  12  14
ENDBRANCH  11  12
ENDBRANCH   9  11
BRANCH   8  27
HETATM   27  S           1      -0.382  -1.939  -0.356  0.00  0.00    -0.105 SA
BRANCH  27  28
HETATM   28  C           1       1.022  -2.970  -0.867  0.00  0.00     0.119 C 
BRANCH  28  29
HETATM   29  C           1       2.279  -2.158  -0.824  0.00  0.00    -0.049 A 
HETATM   30  C           1       3.412  -2.591  -1.514  0.00  0.00     0.008 A 
HETATM   31  C           1       4.584  -1.835  -1.474  0.00  0.00     0.001 A 
HETATM   32  C           1       4.622  -0.646  -0.745  0.00  0.00     0.000 A 
HETATM   33  C           1       3.490  -0.214  -0.055  0.00  0.00     0.001 A 
HETATM   34  C           1       2.318  -0.970  -0.095  0.00  0.00     0.008 A 
ENDBRANCH  28  29
ENDBRANCH  27  28
ENDBRANCH   8  27
TORSDOF 9
