REMARK  8 active torsions:
REMARK  status: ('A' for Active; 'I' for Inactive)
REMARK    1  A    between atoms: C_8  and  S_27 
REMARK    2  A    between atoms: C_9  and  C_11 
REMARK    3  A    between atoms: C_11  and  N_12 
REMARK    4  A    between atoms: S_27  and  C_28 
REMARK    5  A    between atoms: N_12  and  C_14 
REMARK    6  A    between atoms: C_14  and  C_15 
REMARK    7  A    between atoms: C_18  and  N_21 
REMARK    8  A    between atoms: C_28  and  C_29 
ROOT
HETATM    1  C           1      -4.230  -7.204  -1.583  0.00  0.00     0.001 A 
HETATM    2  C           1      -2.878  -7.394  -1.844  0.00  0.00     0.002 A 
HETATM    3  C           1      -1.981  -6.335  -1.675  0.00  0.00     0.032 A 
HETATM    4  C           1      -2.401  -5.081  -1.249  0.00  0.00     0.068 A 
HETATM    5  C           1      -3.775  -4.894  -0.987  0.00  0.00    -0.007 A 
HETATM    6  C           1      -4.681  -5.957  -1.155  0.00  0.00     0.014 A 
HETATM    7  N           1      -1.499  -4.094  -1.102  0.00  0.00    -0.241 NA
HETATM    8  C           1      -1.943  -2.887  -0.687  0.00  0.00     0.102 A 
HETATM    9  C           1      -3.267  -2.607  -0.404  0.00  0.00     0.006 A 
HETATM   10  C           1      -4.196  -3.629  -0.558  0.00  0.00     0.025 A 
ENDROOT
BRANCH   9  11
HETATM   11  C           1      -3.687  -1.245   0.052  0.00  0.00     0.311 C 
BRANCH  11  12
HETATM   12  N           1      -2.535  -0.387   0.125  0.00  0.00     0.091 N 
HETATM   13  H           1      -1.870  -0.766   0.799  0.00  0.00     0.316 HD
BRANCH  12  14
HETATM   14  C           1      -2.980   0.907   0.566  0.00  0.00     0.308 C 
BRANCH  14  15
HETATM   15  C           1      -1.809   1.835   0.655  0.00  0.00    -0.030 A 
HETATM   16  C           1      -1.906   3.010   1.401  0.00  0.00     0.011 A 
HETATM   17  C           1      -0.814   3.875   1.484  0.00  0.00     0.030 A 
HETATM   18  C           1       0.373   3.565   0.822  0.00  0.00     0.030 A 
HETATM   19  C           1       0.470   2.390   0.076  0.00  0.00     0.030 A 
HETATM   20  C           1      -0.622   1.526  -0.008  0.00  0.00     0.011 A 
BRANCH  18  21
HETATM   21  N           1       1.363   4.350   0.897  0.00  0.00    -0.381 N 
HETATM   22  C           1       2.436   4.422  -0.096  0.00  0.00     0.123 C 
HETATM   23  C           1       3.799   4.138   0.531  0.00  0.00     0.020 C 
HETATM   24  C           1       4.074   5.073   1.704  0.00  0.00     0.003 C 
HETATM   25  C           1       2.913   5.048   2.693  0.00  0.00     0.020 C 
HETATM   26  C           1       1.581   5.300   1.989  0.00  0.00     0.123 C 
ENDBRANCH  18  21
ENDBRANCH  14  15
ENDBRANCH  12  14
ENDBRANCH  11  12
ENDBRANCH   9  11
BRANCH   8  27
HETATM   27  S           1      -0.728  -1.554  -0.487  0.00  0.00    -0.105 SA
BRANCH  27  28
HETATM   28  C           1       0.676  -2.585  -0.998  0.00  0.00     0.119 C 
BRANCH  28  29
HETATM   29  C           1       1.933  -1.773  -0.955  0.00  0.00    -0.049 A 
HETATM   30  C           1       3.066  -2.206  -1.645  0.00  0.00     0.008 A 
HETATM   31  C           1       4.237  -1.449  -1.605  0.00  0.00     0.001 A 
HETATM   32  C           1       4.276  -0.261  -0.876  0.00  0.00     0.000 A 
HETATM   33  C           1       3.143   0.171  -0.186  0.00  0.00     0.001 A 
HETATM   34  C           1       1.972  -0.585  -0.226  0.00  0.00     0.008 A 
ENDBRANCH  28  29
ENDBRANCH  27  28
ENDBRANCH   8  27
TORSDOF 8
