MODEL 1
REMARK VINA RESULT:      -8.0      0.000      0.000
REMARK  8 active torsions:
REMARK  status: ('A' for Active; 'I' for Inactive)
REMARK    1  A    between atoms: C_8  and  C_9 
REMARK    2  A    between atoms: C_9  and  S_10 
REMARK    3  A    between atoms: S_10  and  C_23 
REMARK    4  A    between atoms: O_11  and  C_13 
REMARK    5  A    between atoms: C_17  and  C_18 
REMARK    6  A    between atoms: C_18  and  N_19 
REMARK    7  A    between atoms: N_19  and  C_20 
REMARK    8  A    between atoms: C_20  and  C_22 
ROOT
HETATM    1  C           1     172.971 185.461 289.080  0.00  0.00     0.025 A 
HETATM    2  C           1     172.650 185.754 287.760  0.00  0.00     0.006 A 
HETATM    3  C           1     171.870 186.870 287.516  0.00  0.00     0.102 A 
HETATM    4  N           1     171.403 187.691 288.482  0.00  0.00    -0.241 NA
HETATM    5  C           1     172.806 186.030 291.460  0.00  0.00     0.014 A 
HETATM    6  C           1     172.505 186.289 290.111  0.00  0.00    -0.007 A 
HETATM    7  C           1     171.716 187.405 289.759  0.00  0.00     0.068 A 
HETATM    8  C           1     171.253 188.227 290.778  0.00  0.00     0.032 A 
HETATM    9  C           1     171.550 187.973 292.120  0.00  0.00     0.002 A 
HETATM   10  C           1     172.328 186.872 292.462  0.00  0.00     0.001 A 
ENDROOT
BRANCH   2  11
HETATM   11  C           1     173.131 184.889 286.638  0.00  0.00     0.311 C 
BRANCH  11  12
HETATM   12  N           1     174.458 185.292 286.257  0.00  0.00     0.091 N 
HETATM   13  H           1     174.435 186.249 285.906  0.00  0.00     0.316 HD
BRANCH  12  14
HETATM   14  C           1     174.899 184.408 285.211  0.00  0.00     0.308 C 
BRANCH  14  15
HETATM   15  C           1     174.624 185.035 283.880  0.00  0.00    -0.028 A 
HETATM   16  C           1     175.672 185.575 283.134  0.00  0.00     0.045 A 
HETATM   17  C           1     175.416 186.158 281.893  0.00  0.00     0.066 A 
HETATM   18  C           1     174.113 186.200 281.397  0.00  0.00     0.036 A 
HETATM   19  C           1     173.065 185.660 282.143  0.00  0.00     0.003 A 
HETATM   20  C           1     173.321 185.077 283.384  0.00  0.00     0.009 A 
BRANCH  17  21
HETATM   21  O           1     176.434 186.684 281.168  0.00  0.00    -0.361 OA
HETATM   22  H           1     176.081 186.944 280.301  0.00  0.00     0.217 HD
ENDBRANCH  17  21
ENDBRANCH  14  15
ENDBRANCH  12  14
ENDBRANCH  11  12
ENDBRANCH   2  11
BRANCH   3  23
HETATM   23  S           1     171.450 187.254 285.793  0.00  0.00    -0.105 SA
BRANCH  23  24
HETATM   24  C           1     173.014 188.118 285.471  0.00  0.00     0.119 C 
BRANCH  24  25
HETATM   25  C           1     172.975 188.730 284.106  0.00  0.00    -0.049 A 
HETATM   26  C           1     174.160 189.130 283.487  0.00  0.00     0.008 A 
HETATM   27  C           1     174.124 189.700 282.215  0.00  0.00     0.001 A 
HETATM   28  C           1     172.905 189.871 281.560  0.00  0.00     0.000 A 
HETATM   29  C           1     171.720 189.470 282.179  0.00  0.00     0.001 A 
HETATM   30  C           1     171.755 188.900 283.451  0.00  0.00     0.008 A 
ENDBRANCH  24  25
ENDBRANCH  23  24
ENDBRANCH   3  23
TORSDOF 8
ENDMDL
MODEL 2
REMARK VINA RESULT:      -7.7      2.282      5.918
REMARK  8 active torsions:
REMARK  status: ('A' for Active; 'I' for Inactive)
REMARK    1  A    between atoms: C_8  and  C_9 
REMARK    2  A    between atoms: C_9  and  S_10 
REMARK    3  A    between atoms: S_10  and  C_23 
REMARK    4  A    between atoms: O_11  and  C_13 
REMARK    5  A    between atoms: C_17  and  C_18 
REMARK    6  A    between atoms: C_18  and  N_19 
REMARK    7  A    between atoms: N_19  and  C_20 
REMARK    8  A    between atoms: C_20  and  C_22 
ROOT
HETATM    1  C           1     171.886 187.326 286.677  0.00  0.00     0.025 A 
HETATM    2  C           1     172.515 186.840 287.817  0.00  0.00     0.006 A 
HETATM    3  C           1     172.002 187.211 289.047  0.00  0.00     0.102 A 
HETATM    4  N           1     170.930 188.016 289.206  0.00  0.00    -0.241 NA
HETATM    5  C           1     170.102 188.678 285.674  0.00  0.00     0.014 A 
HETATM    6  C           1     170.769 188.164 286.800  0.00  0.00    -0.007 A 
HETATM    7  C           1     170.322 188.485 288.100  0.00  0.00     0.068 A 
HETATM    8  C           1     169.217 189.315 288.226  0.00  0.00     0.032 A 
HETATM    9  C           1     168.551 189.828 287.108  0.00  0.00     0.002 A 
HETATM   10  C           1     168.995 189.508 285.830  0.00  0.00     0.001 A 
ENDROOT
BRANCH   2  11
HETATM   11  C           1     173.709 185.944 287.718  0.00  0.00     0.311 C 
BRANCH  11  12
HETATM   12  N           1     173.414 184.846 286.837  0.00  0.00     0.091 N 
HETATM   13  H           1     173.162 184.027 287.388  0.00  0.00     0.316 HD
BRANCH  12  14
HETATM   14  C           1     174.602 184.566 286.076  0.00  0.00     0.308 C 
BRANCH  14  15
HETATM   15  C           1     174.434 185.077 284.680  0.00  0.00    -0.028 A 
HETATM   16  C           1     175.551 185.463 283.939  0.00  0.00     0.045 A 
HETATM   17  C           1     175.395 185.939 282.637  0.00  0.00     0.066 A 
HETATM   18  C           1     174.121 186.029 282.076  0.00  0.00     0.036 A 
HETATM   19  C           1     173.003 185.643 282.816  0.00  0.00     0.003 A 
HETATM   20  C           1     173.160 185.167 284.118  0.00  0.00     0.009 A 
BRANCH  17  21
HETATM   21  O           1     176.480 186.315 281.918  0.00  0.00    -0.361 OA
HETATM   22  H           1     176.371 187.251 281.678  0.00  0.00     0.217 HD
ENDBRANCH  17  21
ENDBRANCH  14  15
ENDBRANCH  12  14
ENDBRANCH  11  12
ENDBRANCH   2  11
BRANCH   3  23
HETATM   23  S           1     172.823 186.578 290.537  0.00  0.00    -0.105 SA
BRANCH  23  24
HETATM   24  C           1     171.495 185.402 290.922  0.00  0.00     0.119 C 
BRANCH  24  25
HETATM   25  C           1     170.496 186.053 291.827  0.00  0.00    -0.049 A 
HETATM   26  C           1     170.915 186.630 293.027  0.00  0.00     0.008 A 
HETATM   27  C           1     169.985 187.236 293.870  0.00  0.00     0.001 A 
HETATM   28  C           1     168.637 187.268 293.515  0.00  0.00     0.000 A 
HETATM   29  C           1     168.219 186.692 292.315  0.00  0.00     0.001 A 
HETATM   30  C           1     169.148 186.085 291.471  0.00  0.00     0.008 A 
ENDBRANCH  24  25
ENDBRANCH  23  24
ENDBRANCH   3  23
TORSDOF 8
ENDMDL
MODEL 3
REMARK VINA RESULT:      -7.7     11.502     14.878
REMARK  8 active torsions:
REMARK  status: ('A' for Active; 'I' for Inactive)
REMARK    1  A    between atoms: C_8  and  C_9 
REMARK    2  A    between atoms: C_9  and  S_10 
REMARK    3  A    between atoms: S_10  and  C_23 
REMARK    4  A    between atoms: O_11  and  C_13 
REMARK    5  A    between atoms: C_17  and  C_18 
REMARK    6  A    between atoms: C_18  and  N_19 
REMARK    7  A    between atoms: N_19  and  C_20 
REMARK    8  A    between atoms: C_20  and  C_22 
ROOT
HETATM    1  C           1     176.600 187.272 273.137  0.00  0.00     0.025 A 
HETATM    2  C           1     175.415 187.223 272.414  0.00  0.00     0.006 A 
HETATM    3  C           1     174.424 186.364 272.852  0.00  0.00     0.102 A 
HETATM    4  N           1     174.539 185.571 273.939  0.00  0.00    -0.241 NA
HETATM    5  C           1     177.939 186.482 275.034  0.00  0.00     0.014 A 
HETATM    6  C           1     176.758 186.465 274.272  0.00  0.00    -0.007 A 
HETATM    7  C           1     175.687 185.621 274.638  0.00  0.00     0.068 A 
HETATM    8  C           1     175.840 184.819 275.761  0.00  0.00     0.032 A 
HETATM    9  C           1     177.013 184.834 276.522  0.00  0.00     0.002 A 
HETATM   10  C           1     178.065 185.667 276.157  0.00  0.00     0.001 A 
ENDROOT
BRANCH   2  11
HETATM   11  C           1     175.217 188.073 271.198  0.00  0.00     0.311 C 
BRANCH  11  12
HETATM   12  N           1     175.867 189.342 271.388  0.00  0.00     0.091 N 
HETATM   13  H           1     175.505 189.786 272.232  0.00  0.00     0.316 HD
BRANCH  12  14
HETATM   14  C           1     175.563 190.163 270.247  0.00  0.00     0.308 C 
BRANCH  14  15
HETATM   15  C           1     174.613 191.247 270.651  0.00  0.00    -0.028 A 
HETATM   16  C           1     175.049 192.286 271.475  0.00  0.00     0.045 A 
HETATM   17  C           1     174.164 193.296 271.850  0.00  0.00     0.066 A 
HETATM   18  C           1     172.843 193.268 271.403  0.00  0.00     0.036 A 
HETATM   19  C           1     172.407 192.230 270.580  0.00  0.00     0.003 A 
HETATM   20  C           1     173.291 191.220 270.204  0.00  0.00     0.009 A 
BRANCH  17  21
HETATM   21  O           1     174.587 194.304 272.651  0.00  0.00    -0.361 OA
HETATM   22  H           1     175.511 194.501 272.423  0.00  0.00     0.217 HD
ENDBRANCH  17  21
ENDBRANCH  14  15
ENDBRANCH  12  14
ENDBRANCH  11  12
ENDBRANCH   2  11
BRANCH   3  23
HETATM   23  S           1     172.875 186.299 271.907  0.00  0.00    -0.105 SA
BRANCH  23  24
HETATM   24  C           1     172.966 184.505 271.641  0.00  0.00     0.119 C 
BRANCH  24  25
HETATM   25  C           1     174.170 184.184 270.812  0.00  0.00    -0.049 A 
HETATM   26  C           1     175.104 183.253 271.270  0.00  0.00     0.008 A 
HETATM   27  C           1     176.225 182.953 270.498  0.00  0.00     0.001 A 
HETATM   28  C           1     176.414 183.582 269.267  0.00  0.00     0.000 A 
HETATM   29  C           1     175.480 184.512 268.809  0.00  0.00     0.001 A 
HETATM   30  C           1     174.359 184.812 269.581  0.00  0.00     0.008 A 
ENDBRANCH  24  25
ENDBRANCH  23  24
ENDBRANCH   3  23
TORSDOF 8
ENDMDL
MODEL 4
REMARK VINA RESULT:      -7.5     13.560     17.740
REMARK  8 active torsions:
REMARK  status: ('A' for Active; 'I' for Inactive)
REMARK    1  A    between atoms: C_8  and  C_9 
REMARK    2  A    between atoms: C_9  and  S_10 
REMARK    3  A    between atoms: S_10  and  C_23 
REMARK    4  A    between atoms: O_11  and  C_13 
REMARK    5  A    between atoms: C_17  and  C_18 
REMARK    6  A    between atoms: C_18  and  N_19 
REMARK    7  A    between atoms: N_19  and  C_20 
REMARK    8  A    between atoms: C_20  and  C_22 
ROOT
HETATM    1  C           1     174.943 186.542 268.104  0.00  0.00     0.025 A 
HETATM    2  C           1     175.111 185.526 269.036  0.00  0.00     0.006 A 
HETATM    3  C           1     175.184 185.878 270.371  0.00  0.00     0.102 A 
HETATM    4  N           1     175.101 187.148 270.823  0.00  0.00    -0.241 NA
HETATM    5  C           1     174.682 188.933 267.624  0.00  0.00     0.014 A 
HETATM    6  C           1     174.853 187.873 268.532  0.00  0.00    -0.007 A 
HETATM    7  C           1     174.938 188.130 269.917  0.00  0.00     0.068 A 
HETATM    8  C           1     174.849 189.448 270.345  0.00  0.00     0.032 A 
HETATM    9  C           1     174.679 190.504 269.445  0.00  0.00     0.002 A 
HETATM   10  C           1     174.595 190.246 268.081  0.00  0.00     0.001 A 
ENDROOT
BRANCH   2  11
HETATM   11  C           1     175.212 184.095 268.610  0.00  0.00     0.311 C 
BRANCH  11  12
HETATM   12  N           1     176.485 183.870 267.980  0.00  0.00     0.091 N 
HETATM   13  H           1     176.671 184.620 267.313  0.00  0.00     0.316 HD
BRANCH  12  14
HETATM   14  C           1     176.411 182.615 267.281  0.00  0.00     0.308 C 
BRANCH  14  15
HETATM   15  C           1     176.764 182.824 265.841  0.00  0.00    -0.028 A 
HETATM   16  C           1     176.287 183.946 265.162  0.00  0.00     0.045 A 
HETATM   17  C           1     176.617 184.140 263.820  0.00  0.00     0.066 A 
HETATM   18  C           1     177.422 183.214 263.159  0.00  0.00     0.036 A 
HETATM   19  C           1     177.899 182.092 263.837  0.00  0.00     0.003 A 
HETATM   20  C           1     177.569 181.897 265.178  0.00  0.00     0.009 A 
BRANCH  17  21
HETATM   21  O           1     176.153 185.229 263.160  0.00  0.00    -0.361 OA
HETATM   22  H           1     176.920 185.744 262.856  0.00  0.00     0.217 HD
ENDBRANCH  17  21
ENDBRANCH  14  15
ENDBRANCH  12  14
ENDBRANCH  11  12
ENDBRANCH   2  11
BRANCH   3  23
HETATM   23  S           1     175.405 184.552 271.591  0.00  0.00    -0.105 SA
BRANCH  23  24
HETATM   24  C           1     174.786 185.550 272.975  0.00  0.00     0.119 C 
BRANCH  24  25
HETATM   25  C           1     175.835 185.633 274.039  0.00  0.00    -0.049 A 
HETATM   26  C           1     177.043 186.282 273.779  0.00  0.00     0.008 A 
HETATM   27  C           1     178.021 186.359 274.770  0.00  0.00     0.001 A 
HETATM   28  C           1     177.792 185.791 276.022  0.00  0.00     0.000 A 
HETATM   29  C           1     176.583 185.144 276.283  0.00  0.00     0.001 A 
HETATM   30  C           1     175.606 185.065 275.292  0.00  0.00     0.008 A 
ENDBRANCH  24  25
ENDBRANCH  23  24
ENDBRANCH   3  23
TORSDOF 8
ENDMDL
MODEL 5
REMARK VINA RESULT:      -7.4     11.609     15.337
REMARK  8 active torsions:
REMARK  status: ('A' for Active; 'I' for Inactive)
REMARK    1  A    between atoms: C_8  and  C_9 
REMARK    2  A    between atoms: C_9  and  S_10 
REMARK    3  A    between atoms: S_10  and  C_23 
REMARK    4  A    between atoms: O_11  and  C_13 
REMARK    5  A    between atoms: C_17  and  C_18 
REMARK    6  A    between atoms: C_18  and  N_19 
REMARK    7  A    between atoms: N_19  and  C_20 
REMARK    8  A    between atoms: C_20  and  C_22 
ROOT
HETATM    1  C           1     173.574 189.445 272.720  0.00  0.00     0.025 A 
HETATM    2  C           1     173.950 188.696 271.612  0.00  0.00     0.006 A 
HETATM    3  C           1     174.537 189.359 270.550  0.00  0.00     0.102 A 
HETATM    4  N           1     174.767 190.690 270.526  0.00  0.00    -0.241 NA
HETATM    5  C           1     173.432 191.625 273.834  0.00  0.00     0.014 A 
HETATM    6  C           1     173.796 190.828 272.734  0.00  0.00    -0.007 A 
HETATM    7  C           1     174.402 191.413 271.601  0.00  0.00     0.068 A 
HETATM    8  C           1     174.624 192.784 271.611  0.00  0.00     0.032 A 
HETATM    9  C           1     174.264 193.579 272.703  0.00  0.00     0.002 A 
HETATM   10  C           1     173.667 192.998 273.817  0.00  0.00     0.001 A 
ENDROOT
BRANCH   2  11
HETATM   11  C           1     173.725 187.217 271.567  0.00  0.00     0.311 C 
BRANCH  11  12
HETATM   12  N           1     173.652 186.702 272.908  0.00  0.00     0.091 N 
HETATM   13  H           1     174.086 187.364 273.550  0.00  0.00     0.316 HD
BRANCH  12  14
HETATM   14  C           1     174.375 185.459 272.939  0.00  0.00     0.308 C 
BRANCH  14  15
HETATM   15  C           1     175.450 185.533 273.978  0.00  0.00    -0.028 A 
HETATM   16  C           1     176.649 186.187 273.695  0.00  0.00     0.045 A 
HETATM   17  C           1     177.651 186.257 274.663  0.00  0.00     0.066 A 
HETATM   18  C           1     177.453 185.672 275.914  0.00  0.00     0.036 A 
HETATM   19  C           1     176.254 185.017 276.197  0.00  0.00     0.003 A 
HETATM   20  C           1     175.253 184.948 275.229  0.00  0.00     0.009 A 
BRANCH  17  21
HETATM   21  O           1     178.816 186.891 274.389  0.00  0.00    -0.361 OA
HETATM   22  H           1     179.235 186.439 273.638  0.00  0.00     0.217 HD
ENDBRANCH  17  21
ENDBRANCH  14  15
ENDBRANCH  12  14
ENDBRANCH  11  12
ENDBRANCH   2  11
BRANCH   3  23
HETATM   23  S           1     175.028 188.382 269.101  0.00  0.00    -0.105 SA
BRANCH  23  24
HETATM   24  C           1     174.588 189.685 267.916  0.00  0.00     0.119 C 
BRANCH  24  25
HETATM   25  C           1     173.195 189.459 267.419  0.00  0.00    -0.049 A 
HETATM   26  C           1     172.794 188.182 267.023  0.00  0.00     0.008 A 
HETATM   27  C           1     171.496 187.971 266.560  0.00  0.00     0.001 A 
HETATM   28  C           1     170.597 189.036 266.492  0.00  0.00     0.000 A 
HETATM   29  C           1     170.998 190.312 266.889  0.00  0.00     0.001 A 
HETATM   30  C           1     172.296 190.524 267.352  0.00  0.00     0.008 A 
ENDBRANCH  24  25
ENDBRANCH  23  24
ENDBRANCH   3  23
TORSDOF 8
ENDMDL
MODEL 6
REMARK VINA RESULT:      -7.4     11.713     15.685
REMARK  8 active torsions:
REMARK  status: ('A' for Active; 'I' for Inactive)
REMARK    1  A    between atoms: C_8  and  C_9 
REMARK    2  A    between atoms: C_9  and  S_10 
REMARK    3  A    between atoms: S_10  and  C_23 
REMARK    4  A    between atoms: O_11  and  C_13 
REMARK    5  A    between atoms: C_17  and  C_18 
REMARK    6  A    between atoms: C_18  and  N_19 
REMARK    7  A    between atoms: N_19  and  C_20 
REMARK    8  A    between atoms: C_20  and  C_22 
ROOT
HETATM    1  C           1     176.427 186.794 272.635  0.00  0.00     0.025 A 
HETATM    2  C           1     175.219 186.558 271.991  0.00  0.00     0.006 A 
HETATM    3  C           1     174.279 185.781 272.642  0.00  0.00     0.102 A 
HETATM    4  N           1     174.464 185.239 273.866  0.00  0.00    -0.241 NA
HETATM    5  C           1     177.864 186.464 274.595  0.00  0.00     0.014 A 
HETATM    6  C           1     176.657 186.250 273.906  0.00  0.00    -0.007 A 
HETATM    7  C           1     175.635 185.470 274.488  0.00  0.00     0.068 A 
HETATM    8  C           1     175.859 184.929 275.747  0.00  0.00     0.032 A 
HETATM    9  C           1     177.058 185.140 276.434  0.00  0.00     0.002 A 
HETATM   10  C           1     178.063 185.909 275.857  0.00  0.00     0.001 A 
ENDROOT
BRANCH   2  11
HETATM   11  C           1     174.944 187.125 270.634  0.00  0.00     0.311 C 
BRANCH  11  12
HETATM   12  N           1     174.892 188.560 270.714  0.00  0.00     0.091 N 
HETATM   13  H           1     173.937 188.855 270.914  0.00  0.00     0.316 HD
BRANCH  12  14
HETATM   14  C           1     175.298 189.084 269.438  0.00  0.00     0.308 C 
BRANCH  14  15
HETATM   15  C           1     174.129 189.085 268.504  0.00  0.00    -0.028 A 
HETATM   16  C           1     173.849 187.953 267.736  0.00  0.00     0.045 A 
HETATM   17  C           1     172.759 187.954 266.866  0.00  0.00     0.066 A 
HETATM   18  C           1     171.949 189.085 266.763  0.00  0.00     0.036 A 
HETATM   19  C           1     172.229 190.216 267.530  0.00  0.00     0.003 A 
HETATM   20  C           1     173.319 190.216 268.400  0.00  0.00     0.009 A 
BRANCH  17  21
HETATM   21  O           1     172.487 186.856 266.120  0.00  0.00    -0.361 OA
HETATM   22  H           1     171.540 186.657 266.213  0.00  0.00     0.217 HD
ENDBRANCH  17  21
ENDBRANCH  14  15
ENDBRANCH  12  14
ENDBRANCH  11  12
ENDBRANCH   2  11
BRANCH   3  23
HETATM   23  S           1     172.700 185.470 271.801  0.00  0.00    -0.105 SA
BRANCH  23  24
HETATM   24  C           1     173.001 183.689 271.623  0.00  0.00     0.119 C 
BRANCH  24  25
HETATM   25  C           1     174.092 183.464 270.625  0.00  0.00    -0.049 A 
HETATM   26  C           1     173.900 183.818 269.289  0.00  0.00     0.008 A 
HETATM   27  C           1     174.917 183.608 268.358  0.00  0.00     0.001 A 
HETATM   28  C           1     176.127 183.045 268.763  0.00  0.00     0.000 A 
HETATM   29  C           1     176.320 182.692 270.099  0.00  0.00     0.001 A 
HETATM   30  C           1     175.303 182.901 271.029  0.00  0.00     0.008 A 
ENDBRANCH  24  25
ENDBRANCH  23  24
ENDBRANCH   3  23
TORSDOF 8
ENDMDL
MODEL 7
REMARK VINA RESULT:      -7.3     11.576     14.475
REMARK  8 active torsions:
REMARK  status: ('A' for Active; 'I' for Inactive)
REMARK    1  A    between atoms: C_8  and  C_9 
REMARK    2  A    between atoms: C_9  and  S_10 
REMARK    3  A    between atoms: S_10  and  C_23 
REMARK    4  A    between atoms: O_11  and  C_13 
REMARK    5  A    between atoms: C_17  and  C_18 
REMARK    6  A    between atoms: C_18  and  N_19 
REMARK    7  A    between atoms: N_19  and  C_20 
REMARK    8  A    between atoms: C_20  and  C_22 
ROOT
HETATM    1  C           1     174.381 185.731 274.130  0.00  0.00     0.025 A 
HETATM    2  C           1     173.853 186.813 273.436  0.00  0.00     0.006 A 
HETATM    3  C           1     174.483 188.036 273.567  0.00  0.00     0.102 A 
HETATM    4  N           1     175.580 188.243 274.327  0.00  0.00    -0.241 NA
HETATM    5  C           1     176.088 184.839 275.649  0.00  0.00     0.014 A 
HETATM    6  C           1     175.519 185.905 274.930  0.00  0.00    -0.007 A 
HETATM    7  C           1     176.090 187.194 274.997  0.00  0.00     0.068 A 
HETATM    8  C           1     177.218 187.370 275.789  0.00  0.00     0.032 A 
HETATM    9  C           1     177.786 186.313 276.505  0.00  0.00     0.002 A 
HETATM   10  C           1     177.220 185.044 276.435  0.00  0.00     0.001 A 
ENDROOT
BRANCH   2  11
HETATM   11  C           1     172.638 186.658 272.575  0.00  0.00     0.311 C 
BRANCH  11  12
HETATM   12  N           1     172.760 185.464 271.783  0.00  0.00     0.091 N 
HETATM   13  H           1     173.450 184.844 272.207  0.00  0.00     0.316 HD
BRANCH  12  14
HETATM   14  C           1     173.205 185.852 270.473  0.00  0.00     0.308 C 
BRANCH  14  15
HETATM   15  C           1     174.491 185.155 270.156  0.00  0.00    -0.028 A 
HETATM   16  C           1     175.232 185.534 269.035  0.00  0.00     0.045 A 
HETATM   17  C           1     176.431 184.885 268.740  0.00  0.00     0.066 A 
HETATM   18  C           1     176.890 183.858 269.565  0.00  0.00     0.036 A 
HETATM   19  C           1     176.150 183.479 270.685  0.00  0.00     0.003 A 
HETATM   20  C           1     174.951 184.128 270.980  0.00  0.00     0.009 A 
BRANCH  17  21
HETATM   21  O           1     177.150 185.252 267.651  0.00  0.00    -0.361 OA
HETATM   22  H           1     178.086 185.065 267.834  0.00  0.00     0.217 HD
ENDBRANCH  17  21
ENDBRANCH  14  15
ENDBRANCH  12  14
ENDBRANCH  11  12
ENDBRANCH   2  11
BRANCH   3  23
HETATM   23  S           1     173.793 189.450 272.661  0.00  0.00    -0.105 SA
BRANCH  23  24
HETATM   24  C           1     175.070 189.408 271.371  0.00  0.00     0.119 C 
BRANCH  24  25
HETATM   25  C           1     174.418 189.347 270.025  0.00  0.00    -0.049 A 
HETATM   26  C           1     173.034 189.487 269.913  0.00  0.00     0.008 A 
HETATM   27  C           1     172.427 189.429 268.659  0.00  0.00     0.001 A 
HETATM   28  C           1     173.202 189.233 267.516  0.00  0.00     0.000 A 
HETATM   29  C           1     174.586 189.094 267.628  0.00  0.00     0.001 A 
HETATM   30  C           1     175.193 189.150 268.882  0.00  0.00     0.008 A 
ENDBRANCH  24  25
ENDBRANCH  23  24
ENDBRANCH   3  23
TORSDOF 8
ENDMDL
MODEL 8
REMARK VINA RESULT:      -7.2     12.724     17.420
REMARK  8 active torsions:
REMARK  status: ('A' for Active; 'I' for Inactive)
REMARK    1  A    between atoms: C_8  and  C_9 
REMARK    2  A    between atoms: C_9  and  S_10 
REMARK    3  A    between atoms: S_10  and  C_23 
REMARK    4  A    between atoms: O_11  and  C_13 
REMARK    5  A    between atoms: C_17  and  C_18 
REMARK    6  A    between atoms: C_18  and  N_19 
REMARK    7  A    between atoms: N_19  and  C_20 
REMARK    8  A    between atoms: C_20  and  C_22 
ROOT
HETATM    1  C           1     175.967 184.740 268.553  0.00  0.00     0.025 A 
HETATM    2  C           1     175.063 185.725 268.932  0.00  0.00     0.006 A 
HETATM    3  C           1     174.387 186.402 267.934  0.00  0.00     0.102 A 
HETATM    4  N           1     174.552 186.164 266.615  0.00  0.00    -0.241 NA
HETATM    5  C           1     177.071 183.475 266.765  0.00  0.00     0.014 A 
HETATM    6  C           1     176.167 184.463 267.194  0.00  0.00    -0.007 A 
HETATM    7  C           1     175.428 185.209 266.250  0.00  0.00     0.068 A 
HETATM    8  C           1     175.624 184.938 264.903  0.00  0.00     0.032 A 
HETATM    9  C           1     176.522 183.956 264.473  0.00  0.00     0.002 A 
HETATM   10  C           1     177.247 183.224 265.406  0.00  0.00     0.001 A 
ENDROOT
BRANCH   2  11
HETATM   11  C           1     174.828 186.043 270.375  0.00  0.00     0.311 C 
BRANCH  11  12
HETATM   12  N           1     175.479 185.058 271.196  0.00  0.00     0.091 N 
HETATM   13  H           1     175.505 184.167 270.702  0.00  0.00     0.316 HD
BRANCH  12  14
HETATM   14  C           1     174.708 184.916 272.401  0.00  0.00     0.308 C 
BRANCH  14  15
HETATM   15  C           1     175.563 185.247 273.584  0.00  0.00    -0.028 A 
HETATM   16  C           1     176.749 185.961 273.409  0.00  0.00     0.045 A 
HETATM   17  C           1     177.546 186.270 274.511  0.00  0.00     0.066 A 
HETATM   18  C           1     177.157 185.865 275.789  0.00  0.00     0.036 A 
HETATM   19  C           1     175.972 185.150 275.964  0.00  0.00     0.003 A 
HETATM   20  C           1     175.175 184.841 274.862  0.00  0.00     0.009 A 
BRANCH  17  21
HETATM   21  O           1     178.698 186.962 274.342  0.00  0.00    -0.361 OA
HETATM   22  H           1     179.122 186.645 273.527  0.00  0.00     0.217 HD
ENDBRANCH  17  21
ENDBRANCH  14  15
ENDBRANCH  12  14
ENDBRANCH  11  12
ENDBRANCH   2  11
BRANCH   3  23
HETATM   23  S           1     173.205 187.689 268.427  0.00  0.00    -0.105 SA
BRANCH  23  24
HETATM   24  C           1     174.320 189.055 267.996  0.00  0.00     0.119 C 
BRANCH  24  25
HETATM   25  C           1     174.235 190.119 269.045  0.00  0.00    -0.049 A 
HETATM   26  C           1     173.000 190.683 269.368  0.00  0.00     0.008 A 
HETATM   27  C           1     172.920 191.674 270.345  0.00  0.00     0.001 A 
HETATM   28  C           1     174.074 192.103 271.000  0.00  0.00     0.000 A 
HETATM   29  C           1     175.309 191.539 270.677  0.00  0.00     0.001 A 
HETATM   30  C           1     175.389 190.548 269.700  0.00  0.00     0.008 A 
ENDBRANCH  24  25
ENDBRANCH  23  24
ENDBRANCH   3  23
TORSDOF 8
ENDMDL
MODEL 9
REMARK VINA RESULT:      -7.2     13.505     18.040
REMARK  8 active torsions:
REMARK  status: ('A' for Active; 'I' for Inactive)
REMARK    1  A    between atoms: C_8  and  C_9 
REMARK    2  A    between atoms: C_9  and  S_10 
REMARK    3  A    between atoms: S_10  and  C_23 
REMARK    4  A    between atoms: O_11  and  C_13 
REMARK    5  A    between atoms: C_17  and  C_18 
REMARK    6  A    between atoms: C_18  and  N_19 
REMARK    7  A    between atoms: N_19  and  C_20 
REMARK    8  A    between atoms: C_20  and  C_22 
ROOT
HETATM    1  C           1     176.170 184.977 268.418  0.00  0.00     0.025 A 
HETATM    2  C           1     175.123 185.779 268.856  0.00  0.00     0.006 A 
HETATM    3  C           1     174.194 186.198 267.921  0.00  0.00     0.102 A 
HETATM    4  N           1     174.243 185.875 266.611  0.00  0.00    -0.241 NA
HETATM    5  C           1     177.297 183.810 266.579  0.00  0.00     0.014 A 
HETATM    6  C           1     176.256 184.620 267.066  0.00  0.00    -0.007 A 
HETATM    7  C           1     175.258 185.098 266.190  0.00  0.00     0.068 A 
HETATM    8  C           1     175.339 184.746 264.849  0.00  0.00     0.032 A 
HETATM    9  C           1     176.374 183.941 264.362  0.00  0.00     0.002 A 
HETATM   10  C           1     177.355 183.472 265.228  0.00  0.00     0.001 A 
ENDROOT
BRANCH   2  11
HETATM   11  C           1     175.005 186.178 270.293  0.00  0.00     0.311 C 
BRANCH  11  12
HETATM   12  N           1     175.609 185.170 271.122  0.00  0.00     0.091 N 
HETATM   13  H           1     175.628 184.283 270.619  0.00  0.00     0.316 HD
BRANCH  12  14
HETATM   14  C           1     174.799 185.033 272.303  0.00  0.00     0.308 C 
BRANCH  14  15
HETATM   15  C           1     175.629 185.323 273.514  0.00  0.00    -0.028 A 
HETATM   16  C           1     176.831 186.020 273.386  0.00  0.00     0.045 A 
HETATM   17  C           1     177.604 186.291 274.514  0.00  0.00     0.066 A 
HETATM   18  C           1     177.176 185.864 275.772  0.00  0.00     0.036 A 
HETATM   19  C           1     175.976 185.166 275.901  0.00  0.00     0.003 A 
HETATM   20  C           1     175.202 184.896 274.772  0.00  0.00     0.009 A 
BRANCH  17  21
HETATM   21  O           1     178.772 186.968 274.390  0.00  0.00    -0.361 OA
HETATM   22  H           1     178.938 187.107 273.442  0.00  0.00     0.217 HD
ENDBRANCH  17  21
ENDBRANCH  14  15
ENDBRANCH  12  14
ENDBRANCH  11  12
ENDBRANCH   2  11
BRANCH   3  23
HETATM   23  S           1     172.826 187.246 268.491  0.00  0.00    -0.105 SA
BRANCH  23  24
HETATM   24  C           1     173.329 188.669 267.482  0.00  0.00     0.119 C 
BRANCH  24  25
HETATM   25  C           1     172.117 189.451 267.082  0.00  0.00    -0.049 A 
HETATM   26  C           1     172.044 190.817 267.363  0.00  0.00     0.008 A 
HETATM   27  C           1     170.915 191.546 266.992  0.00  0.00     0.001 A 
HETATM   28  C           1     169.859 190.912 266.338  0.00  0.00     0.000 A 
HETATM   29  C           1     169.932 189.547 266.056  0.00  0.00     0.001 A 
HETATM   30  C           1     171.061 188.817 266.428  0.00  0.00     0.008 A 
ENDBRANCH  24  25
ENDBRANCH  23  24
ENDBRANCH   3  23
TORSDOF 8
ENDMDL
