MODEL 1
REMARK VINA RESULT:      -7.9      0.000      0.000
REMARK  9 active torsions:
REMARK  status: ('A' for Active; 'I' for Inactive)
REMARK    1  A    between atoms: C_8  and  S_23 
REMARK    2  A    between atoms: C_9  and  C_11 
REMARK    3  A    between atoms: C_11  and  N_12 
REMARK    4  A    between atoms: N_12  and  C_13 
REMARK    5  A    between atoms: C_13  and  C_14 
REMARK    6  A    between atoms: C_14  and  C_15 
REMARK    7  A    between atoms: N_18  and  C_21 
REMARK    8  A    between atoms: S_23  and  C_24 
REMARK    9  A    between atoms: C_24  and  C_25 
ROOT
HETATM    1  C           1     171.343 191.699 282.059  0.00  0.00     0.001 A 
HETATM    2  C           1     170.383 191.475 281.079  0.00  0.00     0.002 A 
HETATM    3  C           1     170.436 190.310 280.306  0.00  0.00     0.032 A 
HETATM    4  C           1     171.428 189.356 280.488  0.00  0.00     0.068 A 
HETATM    5  C           1     172.401 189.589 281.486  0.00  0.00    -0.007 A 
HETATM    6  C           1     172.351 190.760 282.264  0.00  0.00     0.014 A 
HETATM    7  N           1     171.435 188.252 279.720  0.00  0.00    -0.241 NA
HETATM    8  C           1     172.417 187.345 279.925  0.00  0.00     0.102 A 
HETATM    9  C           1     173.410 187.484 280.874  0.00  0.00     0.006 A 
HETATM   10  C           1     173.400 188.624 281.666  0.00  0.00     0.025 A 
ENDROOT
BRANCH   9  11
HETATM   11  C           1     174.466 186.435 281.045  0.00  0.00     0.311 C 
BRANCH  11  12
HETATM   12  N           1     175.480 186.918 281.943  0.00  0.00     0.087 N 
HETATM   13  H           1     176.220 187.374 281.408  0.00  0.00     0.316 HD
BRANCH  12  14
HETATM   14  C           1     176.023 185.783 282.640  0.00  0.00     0.270 C 
BRANCH  14  15
HETATM   15  C           1     174.886 184.947 283.213  0.00  0.00     0.034 C 
BRANCH  15  16
HETATM   16  C           1     174.453 185.529 284.552  0.00  0.00    -0.010 C 
HETATM   17  C           1     172.935 185.689 284.563  0.00  0.00     0.035 C 
HETATM   18  C           1     172.429 186.084 285.949  0.00  0.00     0.272 C 
HETATM   19  N           1     172.866 185.132 286.970  0.00  0.00     0.088 N 
HETATM   20  C           1     174.325 185.030 287.019  0.00  0.00     0.272 C 
HETATM   21  C           1     174.901 184.596 285.672  0.00  0.00     0.035 C 
BRANCH  19  22
HETATM   22  C           1     172.422 185.668 288.229  0.00  0.00     0.268 C 
HETATM   23  C           1     172.751 187.154 288.292  0.00  0.00     0.037 C 
ENDBRANCH  19  22
ENDBRANCH  15  16
ENDBRANCH  14  15
ENDBRANCH  12  14
ENDBRANCH  11  12
ENDBRANCH   9  11
BRANCH   8  24
HETATM   24  S           1     172.428 185.855 278.888  0.00  0.00    -0.105 SA
BRANCH  24  25
HETATM   25  C           1     172.841 186.758 277.370  0.00  0.00     0.119 C 
BRANCH  25  26
HETATM   26  C           1     174.166 186.291 276.854  0.00  0.00    -0.049 A 
HETATM   27  C           1     174.223 185.348 275.829  0.00  0.00     0.008 A 
HETATM   28  C           1     175.458 184.912 275.349  0.00  0.00     0.001 A 
HETATM   29  C           1     176.636 185.419 275.895  0.00  0.00     0.000 A 
HETATM   30  C           1     176.580 186.363 276.922  0.00  0.00     0.001 A 
HETATM   31  C           1     175.345 186.799 277.401  0.00  0.00     0.008 A 
ENDBRANCH  25  26
ENDBRANCH  24  25
ENDBRANCH   8  24
TORSDOF 9
ENDMDL
MODEL 2
REMARK VINA RESULT:      -7.8      3.767      9.553
REMARK  9 active torsions:
REMARK  status: ('A' for Active; 'I' for Inactive)
REMARK    1  A    between atoms: C_8  and  S_23 
REMARK    2  A    between atoms: C_9  and  C_11 
REMARK    3  A    between atoms: C_11  and  N_12 
REMARK    4  A    between atoms: N_12  and  C_13 
REMARK    5  A    between atoms: C_13  and  C_14 
REMARK    6  A    between atoms: C_14  and  C_15 
REMARK    7  A    between atoms: N_18  and  C_21 
REMARK    8  A    between atoms: S_23  and  C_24 
REMARK    9  A    between atoms: C_24  and  C_25 
ROOT
HETATM    1  C           1     170.866 186.816 293.755  0.00  0.00     0.001 A 
HETATM    2  C           1     169.591 187.149 293.314  0.00  0.00     0.002 A 
HETATM    3  C           1     169.361 187.368 291.951  0.00  0.00     0.032 A 
HETATM    4  C           1     170.378 187.261 291.012  0.00  0.00     0.068 A 
HETATM    5  C           1     171.671 186.921 291.466  0.00  0.00    -0.007 A 
HETATM    6  C           1     171.906 186.701 292.835  0.00  0.00     0.014 A 
HETATM    7  N           1     170.106 187.480 289.713  0.00  0.00    -0.241 NA
HETATM    8  C           1     171.120 187.368 288.826  0.00  0.00     0.102 A 
HETATM    9  C           1     172.416 187.041 289.173  0.00  0.00     0.006 A 
HETATM   10  C           1     172.694 186.814 290.515  0.00  0.00     0.025 A 
ENDROOT
BRANCH   9  11
HETATM   11  C           1     173.490 186.933 288.134  0.00  0.00     0.311 C 
BRANCH  11  12
HETATM   12  N           1     174.033 185.601 288.142  0.00  0.00     0.087 N 
HETATM   13  H           1     175.050 185.649 288.080  0.00  0.00     0.316 HD
BRANCH  12  14
HETATM   14  C           1     173.514 184.912 286.991  0.00  0.00     0.270 C 
BRANCH  14  15
HETATM   15  C           1     174.634 184.691 285.983  0.00  0.00     0.034 C 
BRANCH  15  16
HETATM   16  C           1     174.388 185.555 284.753  0.00  0.00    -0.010 C 
HETATM   17  C           1     174.833 184.792 283.508  0.00  0.00     0.035 C 
HETATM   18  C           1     174.431 185.530 282.233  0.00  0.00     0.272 C 
HETATM   19  N           1     172.993 185.797 282.200  0.00  0.00     0.088 N 
HETATM   20  C           1     172.569 186.595 283.353  0.00  0.00     0.272 C 
HETATM   21  C           1     172.904 185.896 284.669  0.00  0.00     0.035 C 
BRANCH  19  22
HETATM   22  C           1     172.761 186.581 281.017  0.00  0.00     0.268 C 
HETATM   23  C           1     174.096 186.936 280.373  0.00  0.00     0.037 C 
ENDBRANCH  19  22
ENDBRANCH  15  16
ENDBRANCH  14  15
ENDBRANCH  12  14
ENDBRANCH  11  12
ENDBRANCH   9  11
BRANCH   8  24
HETATM   24  S           1     170.754 187.664 287.073  0.00  0.00    -0.105 SA
BRANCH  24  25
HETATM   25  C           1     169.046 188.189 287.385  0.00  0.00     0.119 C 
BRANCH  25  26
HETATM   26  C           1     168.855 189.590 286.896  0.00  0.00    -0.049 A 
HETATM   27  C           1     168.790 190.644 287.806  0.00  0.00     0.008 A 
HETATM   28  C           1     168.612 191.951 287.350  0.00  0.00     0.001 A 
HETATM   29  C           1     168.499 192.202 285.983  0.00  0.00     0.000 A 
HETATM   30  C           1     168.565 191.148 285.072  0.00  0.00     0.001 A 
HETATM   31  C           1     168.743 189.842 285.528  0.00  0.00     0.008 A 
ENDBRANCH  25  26
ENDBRANCH  24  25
ENDBRANCH   8  24
TORSDOF 9
ENDMDL
MODEL 3
REMARK VINA RESULT:      -7.8      2.548      7.887
REMARK  9 active torsions:
REMARK  status: ('A' for Active; 'I' for Inactive)
REMARK    1  A    between atoms: C_8  and  S_23 
REMARK    2  A    between atoms: C_9  and  C_11 
REMARK    3  A    between atoms: C_11  and  N_12 
REMARK    4  A    between atoms: N_12  and  C_13 
REMARK    5  A    between atoms: C_13  and  C_14 
REMARK    6  A    between atoms: C_14  and  C_15 
REMARK    7  A    between atoms: N_18  and  C_21 
REMARK    8  A    between atoms: S_23  and  C_24 
REMARK    9  A    between atoms: C_24  and  C_25 
ROOT
HETATM    1  C           1     172.184 186.721 292.725  0.00  0.00     0.001 A 
HETATM    2  C           1     171.561 187.935 292.464  0.00  0.00     0.002 A 
HETATM    3  C           1     171.248 188.288 291.147  0.00  0.00     0.032 A 
HETATM    4  C           1     171.542 187.455 290.077  0.00  0.00     0.068 A 
HETATM    5  C           1     172.174 186.221 290.348  0.00  0.00    -0.007 A 
HETATM    6  C           1     172.491 185.863 291.670  0.00  0.00     0.014 A 
HETATM    7  N           1     171.220 187.839 288.828  0.00  0.00    -0.241 NA
HETATM    8  C           1     171.521 187.002 287.811  0.00  0.00     0.102 A 
HETATM    9  C           1     172.138 185.777 287.975  0.00  0.00     0.006 A 
HETATM   10  C           1     172.469 185.382 289.265  0.00  0.00     0.025 A 
ENDROOT
BRANCH   9  11
HETATM   11  C           1     172.441 184.901 286.799  0.00  0.00     0.311 C 
BRANCH  11  12
HETATM   12  N           1     173.748 184.322 286.956  0.00  0.00     0.087 N 
HETATM   13  H           1     173.991 184.294 287.947  0.00  0.00     0.316 HD
BRANCH  12  14
HETATM   14  C           1     174.684 185.160 286.256  0.00  0.00     0.270 C 
BRANCH  14  15
HETATM   15  C           1     174.983 184.557 284.890  0.00  0.00     0.034 C 
BRANCH  15  16
HETATM   16  C           1     174.558 185.532 283.800  0.00  0.00    -0.010 C 
HETATM   17  C           1     175.577 185.490 282.664  0.00  0.00     0.035 C 
HETATM   18  C           1     175.100 186.302 281.462  0.00  0.00     0.272 C 
HETATM   19  N           1     173.783 185.859 281.004  0.00  0.00     0.088 N 
HETATM   20  C           1     172.782 185.968 282.067  0.00  0.00     0.272 C 
HETATM   21  C           1     173.174 185.145 283.292  0.00  0.00     0.035 C 
BRANCH  19  22
HETATM   22  C           1     173.404 186.761 279.951  0.00  0.00     0.268 C 
HETATM   23  C           1     174.619 187.070 279.085  0.00  0.00     0.037 C 
ENDBRANCH  19  22
ENDBRANCH  15  16
ENDBRANCH  14  15
ENDBRANCH  12  14
ENDBRANCH  11  12
ENDBRANCH   9  11
BRANCH   8  24
HETATM   24  S           1     171.088 187.520 286.126  0.00  0.00    -0.105 SA
BRANCH  24  25
HETATM   25  C           1     172.757 188.123 285.744  0.00  0.00     0.119 C 
BRANCH  25  26
HETATM   26  C           1     172.768 188.734 284.378  0.00  0.00    -0.049 A 
HETATM   27  C           1     171.566 189.043 283.742  0.00  0.00     0.008 A 
HETATM   28  C           1     171.577 189.612 282.468  0.00  0.00     0.001 A 
HETATM   29  C           1     172.790 189.870 281.830  0.00  0.00     0.000 A 
HETATM   30  C           1     173.992 189.560 282.466  0.00  0.00     0.001 A 
HETATM   31  C           1     173.982 188.992 283.740  0.00  0.00     0.008 A 
ENDBRANCH  25  26
ENDBRANCH  24  25
ENDBRANCH   8  24
TORSDOF 9
ENDMDL
MODEL 4
REMARK VINA RESULT:      -7.7      6.419     10.868
REMARK  9 active torsions:
REMARK  status: ('A' for Active; 'I' for Inactive)
REMARK    1  A    between atoms: C_8  and  S_23 
REMARK    2  A    between atoms: C_9  and  C_11 
REMARK    3  A    between atoms: C_11  and  N_12 
REMARK    4  A    between atoms: N_12  and  C_13 
REMARK    5  A    between atoms: C_13  and  C_14 
REMARK    6  A    between atoms: C_14  and  C_15 
REMARK    7  A    between atoms: N_18  and  C_21 
REMARK    8  A    between atoms: S_23  and  C_24 
REMARK    9  A    between atoms: C_24  and  C_25 
ROOT
HETATM    1  C           1     176.074 181.918 269.499  0.00  0.00     0.001 A 
HETATM    2  C           1     175.495 182.455 268.356  0.00  0.00     0.002 A 
HETATM    3  C           1     175.125 183.804 268.332  0.00  0.00     0.032 A 
HETATM    4  C           1     175.321 184.636 269.426  0.00  0.00     0.068 A 
HETATM    5  C           1     175.911 184.084 270.585  0.00  0.00    -0.007 A 
HETATM    6  C           1     176.284 182.728 270.613  0.00  0.00     0.014 A 
HETATM    7  N           1     174.950 185.927 269.353  0.00  0.00    -0.241 NA
HETATM    8  C           1     175.155 186.707 270.437  0.00  0.00     0.102 A 
HETATM    9  C           1     175.724 186.260 271.614  0.00  0.00     0.006 A 
HETATM   10  C           1     176.108 184.927 271.687  0.00  0.00     0.025 A 
ENDROOT
BRANCH   9  11
HETATM   11  C           1     175.922 187.184 272.776  0.00  0.00     0.311 C 
BRANCH  11  12
HETATM   12  N           1     177.211 186.943 273.366  0.00  0.00     0.087 N 
HETATM   13  H           1     177.560 186.033 273.063  0.00  0.00     0.316 HD
BRANCH  12  14
HETATM   14  C           1     177.044 186.940 274.795  0.00  0.00     0.270 C 
BRANCH  14  15
HETATM   15  C           1     176.809 185.514 275.275  0.00  0.00     0.034 C 
BRANCH  15  16
HETATM   16  C           1     175.657 185.496 276.272  0.00  0.00    -0.010 C 
HETATM   17  C           1     175.711 186.761 277.123  0.00  0.00     0.035 C 
HETATM   18  C           1     174.471 186.890 278.005  0.00  0.00     0.272 C 
HETATM   19  N           1     173.243 186.841 277.211  0.00  0.00     0.088 N 
HETATM   20  C           1     173.146 185.595 276.450  0.00  0.00     0.272 C 
HETATM   21  C           1     174.338 185.419 275.511  0.00  0.00     0.035 C 
BRANCH  19  22
HETATM   22  C           1     172.159 186.862 278.156  0.00  0.00     0.268 C 
HETATM   23  C           1     172.369 185.768 279.195  0.00  0.00     0.037 C 
ENDBRANCH  19  22
ENDBRANCH  15  16
ENDBRANCH  14  15
ENDBRANCH  12  14
ENDBRANCH  11  12
ENDBRANCH   9  11
BRANCH   8  24
HETATM   24  S           1     174.653 188.449 270.340  0.00  0.00    -0.105 SA
BRANCH  24  25
HETATM   25  C           1     174.917 188.559 268.549  0.00  0.00     0.119 C 
BRANCH  25  26
HETATM   26  C           1     173.629 188.916 267.874  0.00  0.00    -0.049 A 
HETATM   27  C           1     173.143 190.220 267.946  0.00  0.00     0.008 A 
HETATM   28  C           1     171.942 190.553 267.318  0.00  0.00     0.001 A 
HETATM   29  C           1     171.229 189.581 266.618  0.00  0.00     0.000 A 
HETATM   30  C           1     171.716 188.275 266.545  0.00  0.00     0.001 A 
HETATM   31  C           1     172.917 187.942 267.173  0.00  0.00     0.008 A 
ENDBRANCH  25  26
ENDBRANCH  24  25
ENDBRANCH   8  24
TORSDOF 9
ENDMDL
MODEL 5
REMARK VINA RESULT:      -7.6      7.799     11.487
REMARK  9 active torsions:
REMARK  status: ('A' for Active; 'I' for Inactive)
REMARK    1  A    between atoms: C_8  and  S_23 
REMARK    2  A    between atoms: C_9  and  C_11 
REMARK    3  A    between atoms: C_11  and  N_12 
REMARK    4  A    between atoms: N_12  and  C_13 
REMARK    5  A    between atoms: C_13  and  C_14 
REMARK    6  A    between atoms: C_14  and  C_15 
REMARK    7  A    between atoms: N_18  and  C_21 
REMARK    8  A    between atoms: S_23  and  C_24 
REMARK    9  A    between atoms: C_24  and  C_25 
ROOT
HETATM    1  C           1     178.033 185.726 276.194  0.00  0.00     0.001 A 
HETATM    2  C           1     177.016 184.851 276.557  0.00  0.00     0.002 A 
HETATM    3  C           1     175.852 184.778 275.784  0.00  0.00     0.032 A 
HETATM    4  C           1     175.675 185.561 274.652  0.00  0.00     0.068 A 
HETATM    5  C           1     176.712 186.448 274.288  0.00  0.00    -0.007 A 
HETATM    6  C           1     177.883 186.525 275.062  0.00  0.00     0.014 A 
HETATM    7  N           1     174.537 185.453 273.942  0.00  0.00    -0.241 NA
HETATM    8  C           1     174.400 186.232 272.846  0.00  0.00     0.102 A 
HETATM    9  C           1     175.356 187.128 272.410  0.00  0.00     0.006 A 
HETATM   10  C           1     176.530 187.237 273.144  0.00  0.00     0.025 A 
ENDROOT
BRANCH   9  11
HETATM   11  C           1     175.134 187.958 271.183  0.00  0.00     0.311 C 
BRANCH  11  12
HETATM   12  N           1     175.778 189.234 271.344  0.00  0.00     0.087 N 
HETATM   13  H           1     175.371 189.723 272.142  0.00  0.00     0.316 HD
BRANCH  12  14
HETATM   14  C           1     175.546 189.995 270.147  0.00  0.00     0.270 C 
BRANCH  14  15
HETATM   15  C           1     175.640 191.482 270.464  0.00  0.00     0.034 C 
BRANCH  15  16
HETATM   16  C           1     174.454 191.894 271.326  0.00  0.00    -0.010 C 
HETATM   17  C           1     174.716 193.278 271.911  0.00  0.00     0.035 C 
HETATM   18  C           1     173.480 193.822 272.625  0.00  0.00     0.272 C 
HETATM   19  N           1     172.314 193.835 271.741  0.00  0.00     0.088 N 
HETATM   20  C           1     172.009 192.496 271.235  0.00  0.00     0.272 C 
HETATM   21  C           1     173.191 191.904 270.471  0.00  0.00     0.035 C 
BRANCH  19  22
HETATM   22  C           1     171.205 194.260 272.552  0.00  0.00     0.268 C 
HETATM   23  C           1     170.625 193.059 273.289  0.00  0.00     0.037 C 
ENDBRANCH  19  22
ENDBRANCH  15  16
ENDBRANCH  14  15
ENDBRANCH  12  14
ENDBRANCH  11  12
ENDBRANCH   9  11
BRANCH   8  24
HETATM   24  S           1     172.865 186.089 271.888  0.00  0.00    -0.105 SA
BRANCH  24  25
HETATM   25  C           1     173.031 184.298 271.645  0.00  0.00     0.119 C 
BRANCH  25  26
HETATM   26  C           1     174.207 184.020 270.761  0.00  0.00    -0.049 A 
HETATM   27  C           1     175.204 183.142 271.183  0.00  0.00     0.008 A 
HETATM   28  C           1     176.300 182.883 270.360  0.00  0.00     0.001 A 
HETATM   29  C           1     176.398 183.504 269.115  0.00  0.00     0.000 A 
HETATM   30  C           1     175.401 184.383 268.692  0.00  0.00     0.001 A 
HETATM   31  C           1     174.304 184.641 269.516  0.00  0.00     0.008 A 
ENDBRANCH  25  26
ENDBRANCH  24  25
ENDBRANCH   8  24
TORSDOF 9
ENDMDL
MODEL 6
REMARK VINA RESULT:      -7.5      4.434      7.250
REMARK  9 active torsions:
REMARK  status: ('A' for Active; 'I' for Inactive)
REMARK    1  A    between atoms: C_8  and  S_23 
REMARK    2  A    between atoms: C_9  and  C_11 
REMARK    3  A    between atoms: C_11  and  N_12 
REMARK    4  A    between atoms: N_12  and  C_13 
REMARK    5  A    between atoms: C_13  and  C_14 
REMARK    6  A    between atoms: C_14  and  C_15 
REMARK    7  A    between atoms: N_18  and  C_21 
REMARK    8  A    between atoms: S_23  and  C_24 
REMARK    9  A    between atoms: C_24  and  C_25 
ROOT
HETATM    1  C           1     174.931 192.423 271.230  0.00  0.00     0.001 A 
HETATM    2  C           1     175.629 191.674 270.290  0.00  0.00     0.002 A 
HETATM    3  C           1     175.555 190.278 270.318  0.00  0.00     0.032 A 
HETATM    4  C           1     174.797 189.604 271.266  0.00  0.00     0.068 A 
HETATM    5  C           1     174.089 190.371 272.218  0.00  0.00    -0.007 A 
HETATM    6  C           1     174.161 191.775 272.193  0.00  0.00     0.014 A 
HETATM    7  N           1     174.758 188.260 271.251  0.00  0.00    -0.241 NA
HETATM    8  C           1     174.009 187.638 272.189  0.00  0.00     0.102 A 
HETATM    9  C           1     173.283 188.299 273.161  0.00  0.00     0.006 A 
HETATM   10  C           1     173.325 189.687 273.173  0.00  0.00     0.025 A 
ENDROOT
BRANCH   9  11
HETATM   11  C           1     172.474 187.542 274.169  0.00  0.00     0.311 C 
BRANCH  11  12
HETATM   12  N           1     173.134 187.590 275.446  0.00  0.00     0.087 N 
HETATM   13  H           1     173.910 186.928 275.453  0.00  0.00     0.316 HD
BRANCH  12  14
HETATM   14  C           1     172.174 187.214 276.448  0.00  0.00     0.270 C 
BRANCH  14  15
HETATM   15  C           1     172.783 186.162 277.366  0.00  0.00     0.034 C 
BRANCH  15  16
HETATM   16  C           1     173.071 186.781 278.728  0.00  0.00    -0.010 C 
HETATM   17  C           1     172.439 185.917 279.815  0.00  0.00     0.035 C 
HETATM   18  C           1     172.860 186.382 281.207  0.00  0.00     0.272 C 
HETATM   19  N           1     174.316 186.418 281.342  0.00  0.00     0.088 N 
HETATM   20  C           1     174.925 187.306 280.351  0.00  0.00     0.272 C 
HETATM   21  C           1     174.580 186.874 278.927  0.00  0.00     0.035 C 
BRANCH  19  22
HETATM   22  C           1     174.581 186.969 282.644  0.00  0.00     0.268 C 
HETATM   23  C           1     175.070 185.865 283.573  0.00  0.00     0.037 C 
ENDBRANCH  19  22
ENDBRANCH  15  16
ENDBRANCH  14  15
ENDBRANCH  12  14
ENDBRANCH  11  12
ENDBRANCH   9  11
BRANCH   8  24
HETATM   24  S           1     173.957 185.824 272.171  0.00  0.00    -0.105 SA
BRANCH  24  25
HETATM   25  C           1     175.762 185.642 272.204  0.00  0.00     0.119 C 
BRANCH  25  26
HETATM   26  C           1     176.241 185.668 273.622  0.00  0.00    -0.049 A 
HETATM   27  C           1     175.496 185.044 274.621  0.00  0.00     0.008 A 
HETATM   28  C           1     175.942 185.069 275.943  0.00  0.00     0.001 A 
HETATM   29  C           1     177.134 185.717 276.264  0.00  0.00     0.000 A 
HETATM   30  C           1     177.881 186.341 275.264  0.00  0.00     0.001 A 
HETATM   31  C           1     177.434 186.316 273.942  0.00  0.00     0.008 A 
ENDBRANCH  25  26
ENDBRANCH  24  25
ENDBRANCH   8  24
TORSDOF 9
ENDMDL
MODEL 7
REMARK VINA RESULT:      -7.5      7.963     12.930
REMARK  9 active torsions:
REMARK  status: ('A' for Active; 'I' for Inactive)
REMARK    1  A    between atoms: C_8  and  S_23 
REMARK    2  A    between atoms: C_9  and  C_11 
REMARK    3  A    between atoms: C_11  and  N_12 
REMARK    4  A    between atoms: N_12  and  C_13 
REMARK    5  A    between atoms: C_13  and  C_14 
REMARK    6  A    between atoms: C_14  and  C_15 
REMARK    7  A    between atoms: N_18  and  C_21 
REMARK    8  A    between atoms: S_23  and  C_24 
REMARK    9  A    between atoms: C_24  and  C_25 
ROOT
HETATM    1  C           1     177.981 185.779 276.038  0.00  0.00     0.001 A 
HETATM    2  C           1     176.968 184.966 276.532  0.00  0.00     0.002 A 
HETATM    3  C           1     175.778 184.820 275.812  0.00  0.00     0.032 A 
HETATM    4  C           1     175.571 185.469 274.602  0.00  0.00     0.068 A 
HETATM    5  C           1     176.604 186.293 274.104  0.00  0.00    -0.007 A 
HETATM    6  C           1     177.802 186.443 274.826  0.00  0.00     0.014 A 
HETATM    7  N           1     174.409 185.296 273.947  0.00  0.00    -0.241 NA
HETATM    8  C           1     174.242 185.943 272.772  0.00  0.00     0.102 A 
HETATM    9  C           1     175.192 186.770 272.205  0.00  0.00     0.006 A 
HETATM   10  C           1     176.391 186.946 272.883  0.00  0.00     0.025 A 
ENDROOT
BRANCH   9  11
HETATM   11  C           1     174.938 187.455 270.897  0.00  0.00     0.311 C 
BRANCH  11  12
HETATM   12  N           1     175.403 188.814 270.969  0.00  0.00     0.087 N 
HETATM   13  H           1     175.071 189.242 271.834  0.00  0.00     0.316 HD
BRANCH  12  14
HETATM   14  C           1     174.856 189.522 269.843  0.00  0.00     0.270 C 
BRANCH  14  15
HETATM   15  C           1     175.237 188.802 268.556  0.00  0.00     0.034 C 
BRANCH  15  16
HETATM   16  C           1     174.067 188.851 267.582  0.00  0.00    -0.010 C 
HETATM   17  C           1     173.296 187.536 267.657  0.00  0.00     0.035 C 
HETATM   18  C           1     172.004 187.604 266.846  0.00  0.00     0.272 C 
HETATM   19  N           1     171.168 188.729 267.264  0.00  0.00     0.088 N 
HETATM   20  C           1     171.874 190.004 267.122  0.00  0.00     0.272 C 
HETATM   21  C           1     173.162 190.023 267.943  0.00  0.00     0.035 C 
BRANCH  19  22
HETATM   22  C           1     170.047 188.748 266.363  0.00  0.00     0.268 C 
HETATM   23  C           1     170.247 187.693 265.282  0.00  0.00     0.037 C 
ENDBRANCH  19  22
ENDBRANCH  15  16
ENDBRANCH  14  15
ENDBRANCH  12  14
ENDBRANCH  11  12
ENDBRANCH   9  11
BRANCH   8  24
HETATM   24  S           1     172.674 185.712 271.888  0.00  0.00    -0.105 SA
BRANCH  24  25
HETATM   25  C           1     172.931 183.933 271.635  0.00  0.00     0.119 C 
BRANCH  25  26
HETATM   26  C           1     174.090 183.722 270.712  0.00  0.00    -0.049 A 
HETATM   27  C           1     174.065 184.260 269.426  0.00  0.00     0.008 A 
HETATM   28  C           1     175.145 184.062 268.565  0.00  0.00     0.001 A 
HETATM   29  C           1     176.249 183.325 268.990  0.00  0.00     0.000 A 
HETATM   30  C           1     176.275 182.786 270.277  0.00  0.00     0.001 A 
HETATM   31  C           1     175.195 182.984 271.138  0.00  0.00     0.008 A 
ENDBRANCH  25  26
ENDBRANCH  24  25
ENDBRANCH   8  24
TORSDOF 9
ENDMDL
MODEL 8
REMARK VINA RESULT:      -7.3      4.895      9.856
REMARK  9 active torsions:
REMARK  status: ('A' for Active; 'I' for Inactive)
REMARK    1  A    between atoms: C_8  and  S_23 
REMARK    2  A    between atoms: C_9  and  C_11 
REMARK    3  A    between atoms: C_11  and  N_12 
REMARK    4  A    between atoms: N_12  and  C_13 
REMARK    5  A    between atoms: C_13  and  C_14 
REMARK    6  A    between atoms: C_14  and  C_15 
REMARK    7  A    between atoms: N_18  and  C_21 
REMARK    8  A    between atoms: S_23  and  C_24 
REMARK    9  A    between atoms: C_24  and  C_25 
ROOT
HETATM    1  C           1     170.316 186.934 293.203  0.00  0.00     0.001 A 
HETATM    2  C           1     171.653 186.558 293.136  0.00  0.00     0.002 A 
HETATM    3  C           1     172.341 186.646 291.921  0.00  0.00     0.032 A 
HETATM    4  C           1     171.726 187.103 290.764  0.00  0.00     0.068 A 
HETATM    5  C           1     170.368 187.484 290.838  0.00  0.00    -0.007 A 
HETATM    6  C           1     169.672 187.397 292.057  0.00  0.00     0.014 A 
HETATM    7  N           1     172.431 187.170 289.620  0.00  0.00    -0.241 NA
HETATM    8  C           1     171.799 187.619 288.513  0.00  0.00     0.102 A 
HETATM    9  C           1     170.476 188.014 288.485  0.00  0.00     0.006 A 
HETATM   10  C           1     169.750 187.945 289.667  0.00  0.00     0.025 A 
ENDROOT
BRANCH   9  11
HETATM   11  C           1     169.843 188.503 287.219  0.00  0.00     0.311 C 
BRANCH  11  12
HETATM   12  N           1     168.543 189.045 287.511  0.00  0.00     0.087 N 
HETATM   13  H           1     167.824 188.377 287.231  0.00  0.00     0.316 HD
BRANCH  12  14
HETATM   14  C           1     168.394 190.256 286.750  0.00  0.00     0.270 C 
BRANCH  14  15
HETATM   15  C           1     168.772 191.450 287.617  0.00  0.00     0.034 C 
BRANCH  15  16
HETATM   16  C           1     168.296 192.734 286.949  0.00  0.00    -0.010 C 
HETATM   17  C           1     168.474 193.899 287.917  0.00  0.00     0.035 C 
HETATM   18  C           1     168.195 195.236 287.234  0.00  0.00     0.272 C 
HETATM   19  N           1     169.025 195.411 286.041  0.00  0.00     0.088 N 
HETATM   20  C           1     168.803 194.337 285.072  0.00  0.00     0.272 C 
HETATM   21  C           1     169.104 192.967 285.677  0.00  0.00     0.035 C 
BRANCH  19  22
HETATM   22  C           1     168.596 196.643 285.436  0.00  0.00     0.268 C 
HETATM   23  C           1     168.338 197.680 286.522  0.00  0.00     0.037 C 
ENDBRANCH  19  22
ENDBRANCH  15  16
ENDBRANCH  14  15
ENDBRANCH  12  14
ENDBRANCH  11  12
ENDBRANCH   9  11
BRANCH   8  24
HETATM   24  S           1     172.749 187.709 286.969  0.00  0.00    -0.105 SA
BRANCH  24  25
HETATM   25  C           1     172.779 185.910 286.732  0.00  0.00     0.119 C 
BRANCH  25  26
HETATM   26  C           1     173.264 185.595 285.351  0.00  0.00    -0.049 A 
HETATM   27  C           1     172.488 185.937 284.245  0.00  0.00     0.008 A 
HETATM   28  C           1     172.940 185.643 282.958  0.00  0.00     0.001 A 
HETATM   29  C           1     174.168 185.007 282.779  0.00  0.00     0.000 A 
HETATM   30  C           1     174.945 184.665 283.886  0.00  0.00     0.001 A 
HETATM   31  C           1     174.493 184.959 285.173  0.00  0.00     0.008 A 
ENDBRANCH  25  26
ENDBRANCH  24  25
ENDBRANCH   8  24
TORSDOF 9
ENDMDL
MODEL 9
REMARK VINA RESULT:      -7.2      2.471      5.859
REMARK  9 active torsions:
REMARK  status: ('A' for Active; 'I' for Inactive)
REMARK    1  A    between atoms: C_8  and  S_23 
REMARK    2  A    between atoms: C_9  and  C_11 
REMARK    3  A    between atoms: C_11  and  N_12 
REMARK    4  A    between atoms: N_12  and  C_13 
REMARK    5  A    between atoms: C_13  and  C_14 
REMARK    6  A    between atoms: C_14  and  C_15 
REMARK    7  A    between atoms: N_18  and  C_21 
REMARK    8  A    between atoms: S_23  and  C_24 
REMARK    9  A    between atoms: C_24  and  C_25 
ROOT
HETATM    1  C           1     171.246 185.638 277.585  0.00  0.00     0.001 A 
HETATM    2  C           1     170.610 186.873 277.619  0.00  0.00     0.002 A 
HETATM    3  C           1     170.894 187.775 278.650  0.00  0.00     0.032 A 
HETATM    4  C           1     171.804 187.474 279.655  0.00  0.00     0.068 A 
HETATM    5  C           1     172.447 186.217 279.615  0.00  0.00    -0.007 A 
HETATM    6  C           1     172.164 185.308 278.581  0.00  0.00     0.014 A 
HETATM    7  N           1     172.043 188.375 280.624  0.00  0.00    -0.241 NA
HETATM    8  C           1     172.934 188.048 281.586  0.00  0.00     0.102 A 
HETATM    9  C           1     173.613 186.846 281.633  0.00  0.00     0.006 A 
HETATM   10  C           1     173.364 185.917 280.631  0.00  0.00     0.025 A 
ENDROOT
BRANCH   9  11
HETATM   11  C           1     174.588 186.552 282.732  0.00  0.00     0.311 C 
BRANCH  11  12
HETATM   12  N           1     174.423 185.192 283.169  0.00  0.00     0.087 N 
HETATM   13  H           1     173.673 184.752 282.636  0.00  0.00     0.316 HD
BRANCH  12  14
HETATM   14  C           1     174.068 185.222 284.563  0.00  0.00     0.270 C 
BRANCH  14  15
HETATM   15  C           1     172.559 185.384 284.698  0.00  0.00     0.034 C 
BRANCH  15  16
HETATM   16  C           1     172.203 185.620 286.160  0.00  0.00    -0.010 C 
HETATM   17  C           1     173.380 185.202 287.037  0.00  0.00     0.035 C 
HETATM   18  C           1     173.153 185.597 288.495  0.00  0.00     0.272 C 
HETATM   19  N           1     172.881 187.028 288.625  0.00  0.00     0.088 N 
HETATM   20  C           1     171.706 187.424 287.847  0.00  0.00     0.272 C 
HETATM   21  C           1     171.880 187.096 286.366  0.00  0.00     0.035 C 
BRANCH  19  22
HETATM   22  C           1     172.582 187.250 290.015  0.00  0.00     0.268 C 
HETATM   23  C           1     171.426 188.236 290.134  0.00  0.00     0.037 C 
ENDBRANCH  19  22
ENDBRANCH  15  16
ENDBRANCH  14  15
ENDBRANCH  12  14
ENDBRANCH  11  12
ENDBRANCH   9  11
BRANCH   8  24
HETATM   24  S           1     173.258 189.263 282.896  0.00  0.00    -0.105 SA
BRANCH  24  25
HETATM   25  C           1     172.526 190.643 281.973  0.00  0.00     0.119 C 
BRANCH  25  26
HETATM   26  C           1     171.408 191.240 282.769  0.00  0.00    -0.049 A 
HETATM   27  C           1     170.376 190.428 283.240  0.00  0.00     0.008 A 
HETATM   28  C           1     169.333 190.984 283.981  0.00  0.00     0.001 A 
HETATM   29  C           1     169.322 192.352 284.251  0.00  0.00     0.000 A 
HETATM   30  C           1     170.355 193.165 283.780  0.00  0.00     0.001 A 
HETATM   31  C           1     171.398 192.609 283.039  0.00  0.00     0.008 A 
ENDBRANCH  25  26
ENDBRANCH  24  25
ENDBRANCH   8  24
TORSDOF 9
ENDMDL
