MODEL 1
REMARK VINA RESULT:      -7.5      0.000      0.000
REMARK  8 active torsions:
REMARK  status: ('A' for Active; 'I' for Inactive)
REMARK    1  A    between atoms: C_8  and  S_20 
REMARK    2  A    between atoms: C_9  and  C_11 
REMARK    3  A    between atoms: C_11  and  N_12 
REMARK    4  A    between atoms: N_12  and  C_13 
REMARK    5  A    between atoms: C_13  and  C_14 
REMARK    6  A    between atoms: C_14  and  C_15 
REMARK    7  A    between atoms: S_20  and  C_21 
REMARK    8  A    between atoms: C_21  and  C_22 
ROOT
HETATM    1  C           1     178.022 185.665 276.159  0.00  0.00     0.001 A 
HETATM    2  C           1     176.961 184.842 276.520  0.00  0.00     0.002 A 
HETATM    3  C           1     175.797 184.827 275.745  0.00  0.00     0.032 A 
HETATM    4  C           1     175.663 185.617 274.611  0.00  0.00     0.068 A 
HETATM    5  C           1     176.743 186.451 274.250  0.00  0.00    -0.007 A 
HETATM    6  C           1     177.915 186.469 275.026  0.00  0.00     0.014 A 
HETATM    7  N           1     174.523 185.567 273.899  0.00  0.00    -0.241 NA
HETATM    8  C           1     174.426 186.349 272.802  0.00  0.00     0.102 A 
HETATM    9  C           1     175.428 187.197 272.368  0.00  0.00     0.006 A 
HETATM   10  C           1     176.604 187.247 273.105  0.00  0.00     0.025 A 
ENDROOT
BRANCH   9  11
HETATM   11  C           1     175.250 188.036 271.140  0.00  0.00     0.311 C 
BRANCH  11  12
HETATM   12  N           1     175.813 189.340 271.364  0.00  0.00     0.087 N 
HETATM   13  H           1     175.573 189.658 272.303  0.00  0.00     0.316 HD
BRANCH  12  14
HETATM   14  C           1     175.239 190.235 270.395  0.00  0.00     0.276 C 
BRANCH  14  15
HETATM   15  C           1     175.804 191.634 270.598  0.00  0.00     0.088 C 
BRANCH  15  16
HETATM   16  C           1     174.852 192.442 271.424  0.00  0.00     0.029 A 
HETATM   17  C           1     173.508 192.633 271.205  0.00  0.00     0.143 A 
HETATM   18  N           1     172.968 193.436 272.176  0.00  0.00    -0.254 NA
HETATM   19  C           1     173.966 193.733 272.976  0.00  0.00     0.207 A 
HETATM   20  N           1     175.130 193.152 272.559  0.00  0.00    -0.353 N 
HETATM   21  H           1     176.067 193.234 273.025  0.00  0.00     0.166 HD
ENDBRANCH  15  16
ENDBRANCH  14  15
ENDBRANCH  12  14
ENDBRANCH  11  12
ENDBRANCH   9  11
BRANCH   8  22
HETATM   22  S           1     172.889 186.283 271.840  0.00  0.00    -0.105 SA
BRANCH  22  23
HETATM   23  C           1     172.955 184.483 271.620  0.00  0.00     0.119 C 
BRANCH  23  24
HETATM   24  C           1     174.146 184.125 270.787  0.00  0.00    -0.049 A 
HETATM   25  C           1     174.328 184.721 269.539  0.00  0.00     0.008 A 
HETATM   26  C           1     175.438 184.387 268.763  0.00  0.00     0.001 A 
HETATM   27  C           1     176.365 183.457 269.234  0.00  0.00     0.000 A 
HETATM   28  C           1     176.182 182.860 270.482  0.00  0.00     0.001 A 
HETATM   29  C           1     175.073 183.195 271.258  0.00  0.00     0.008 A 
ENDBRANCH  23  24
ENDBRANCH  22  23
ENDBRANCH   8  22
TORSDOF 8
ENDMDL
MODEL 2
REMARK VINA RESULT:      -7.3      3.544      7.671
REMARK  8 active torsions:
REMARK  status: ('A' for Active; 'I' for Inactive)
REMARK    1  A    between atoms: C_8  and  S_20 
REMARK    2  A    between atoms: C_9  and  C_11 
REMARK    3  A    between atoms: C_11  and  N_12 
REMARK    4  A    between atoms: N_12  and  C_13 
REMARK    5  A    between atoms: C_13  and  C_14 
REMARK    6  A    between atoms: C_14  and  C_15 
REMARK    7  A    between atoms: S_20  and  C_21 
REMARK    8  A    between atoms: C_21  and  C_22 
ROOT
HETATM    1  C           1     174.540 190.272 268.174  0.00  0.00     0.001 A 
HETATM    2  C           1     174.585 190.505 269.545  0.00  0.00     0.002 A 
HETATM    3  C           1     174.767 189.434 270.427  0.00  0.00     0.032 A 
HETATM    4  C           1     174.906 188.129 269.974  0.00  0.00     0.068 A 
HETATM    5  C           1     174.860 187.899 268.583  0.00  0.00    -0.007 A 
HETATM    6  C           1     174.677 188.972 267.692  0.00  0.00     0.014 A 
HETATM    7  N           1     175.080 187.135 270.863  0.00  0.00    -0.241 NA
HETATM    8  C           1     175.212 185.876 270.388  0.00  0.00     0.102 A 
HETATM    9  C           1     175.180 185.551 269.045  0.00  0.00     0.006 A 
HETATM   10  C           1     175.001 186.580 268.129  0.00  0.00     0.025 A 
ENDROOT
BRANCH   9  11
HETATM   11  C           1     175.334 184.133 268.592  0.00  0.00     0.311 C 
BRANCH  11  12
HETATM   12  N           1     176.649 183.945 268.040  0.00  0.00     0.087 N 
HETATM   13  H           1     177.001 184.836 267.691  0.00  0.00     0.316 HD
BRANCH  12  14
HETATM   14  C           1     176.536 183.014 266.949  0.00  0.00     0.276 C 
BRANCH  14  15
HETATM   15  C           1     177.177 183.610 265.703  0.00  0.00     0.088 C 
BRANCH  15  16
HETATM   16  C           1     176.108 184.102 264.778  0.00  0.00     0.029 A 
HETATM   17  C           1     174.753 183.895 264.880  0.00  0.00     0.143 A 
HETATM   18  N           1     174.090 184.501 263.844  0.00  0.00    -0.254 NA
HETATM   19  C           1     175.026 185.070 263.119  0.00  0.00     0.207 A 
HETATM   20  N           1     176.268 184.854 263.647  0.00  0.00    -0.353 N 
HETATM   21  H           1     177.177 185.203 263.257  0.00  0.00     0.166 HD
ENDBRANCH  15  16
ENDBRANCH  14  15
ENDBRANCH  12  14
ENDBRANCH  11  12
ENDBRANCH   9  11
BRANCH   8  22
HETATM   22  S           1     175.445 184.533 271.586  0.00  0.00    -0.105 SA
BRANCH  22  23
HETATM   23  C           1     174.799 185.495 272.982  0.00  0.00     0.119 C 
BRANCH  23  24
HETATM   24  C           1     175.847 185.597 274.046  0.00  0.00    -0.049 A 
HETATM   25  C           1     175.623 185.031 275.302  0.00  0.00     0.008 A 
HETATM   26  C           1     176.600 185.127 276.293  0.00  0.00     0.001 A 
HETATM   27  C           1     177.799 185.787 276.030  0.00  0.00     0.000 A 
HETATM   28  C           1     178.023 186.353 274.774  0.00  0.00     0.001 A 
HETATM   29  C           1     177.048 186.257 273.783  0.00  0.00     0.008 A 
ENDBRANCH  23  24
ENDBRANCH  22  23
ENDBRANCH   8  22
TORSDOF 8
ENDMDL
MODEL 3
REMARK VINA RESULT:      -7.1      2.145      3.010
REMARK  8 active torsions:
REMARK  status: ('A' for Active; 'I' for Inactive)
REMARK    1  A    between atoms: C_8  and  S_20 
REMARK    2  A    between atoms: C_9  and  C_11 
REMARK    3  A    between atoms: C_11  and  N_12 
REMARK    4  A    between atoms: N_12  and  C_13 
REMARK    5  A    between atoms: C_13  and  C_14 
REMARK    6  A    between atoms: C_14  and  C_15 
REMARK    7  A    between atoms: S_20  and  C_21 
REMARK    8  A    between atoms: C_21  and  C_22 
ROOT
HETATM    1  C           1     177.984 185.950 275.929  0.00  0.00     0.001 A 
HETATM    2  C           1     177.040 185.052 276.413  0.00  0.00     0.002 A 
HETATM    3  C           1     175.850 184.843 275.707  0.00  0.00     0.032 A 
HETATM    4  C           1     175.578 185.513 274.521  0.00  0.00     0.068 A 
HETATM    5  C           1     176.540 186.423 274.034  0.00  0.00    -0.007 A 
HETATM    6  C           1     177.737 186.636 274.742  0.00  0.00     0.014 A 
HETATM    7  N           1     174.420 185.277 273.878  0.00  0.00    -0.241 NA
HETATM    8  C           1     174.187 185.946 272.728  0.00  0.00     0.102 A 
HETATM    9  C           1     175.067 186.856 272.172  0.00  0.00     0.006 A 
HETATM   10  C           1     176.262 187.097 272.837  0.00  0.00     0.025 A 
ENDROOT
BRANCH   9  11
HETATM   11  C           1     174.741 187.560 270.891  0.00  0.00     0.311 C 
BRANCH  11  12
HETATM   12  N           1     175.625 188.681 270.722  0.00  0.00     0.087 N 
HETATM   13  H           1     175.759 189.148 271.618  0.00  0.00     0.316 HD
BRANCH  12  14
HETATM   14  C           1     175.003 189.591 269.796  0.00  0.00     0.276 C 
BRANCH  14  15
HETATM   15  C           1     175.189 189.077 268.375  0.00  0.00     0.088 C 
BRANCH  15  16
HETATM   16  C           1     173.855 188.962 267.707  0.00  0.00     0.029 A 
HETATM   17  C           1     173.290 187.838 267.153  0.00  0.00     0.143 A 
HETATM   18  N           1     172.054 188.122 266.632  0.00  0.00    -0.254 NA
HETATM   19  C           1     171.866 189.401 266.863  0.00  0.00     0.207 A 
HETATM   20  N           1     172.934 189.954 267.512  0.00  0.00    -0.353 N 
HETATM   21  H           1     173.029 190.956 267.809  0.00  0.00     0.166 HD
ENDBRANCH  15  16
ENDBRANCH  14  15
ENDBRANCH  12  14
ENDBRANCH  11  12
ENDBRANCH   9  11
BRANCH   8  22
HETATM   22  S           1     172.625 185.631 271.860  0.00  0.00    -0.105 SA
BRANCH  22  23
HETATM   23  C           1     172.962 183.862 271.631  0.00  0.00     0.119 C 
BRANCH  23  24
HETATM   24  C           1     174.105 183.691 270.680  0.00  0.00    -0.049 A 
HETATM   25  C           1     174.040 184.250 269.403  0.00  0.00     0.008 A 
HETATM   26  C           1     175.105 184.089 268.517  0.00  0.00     0.001 A 
HETATM   27  C           1     176.234 183.369 268.907  0.00  0.00     0.000 A 
HETATM   28  C           1     176.299 182.810 270.183  0.00  0.00     0.001 A 
HETATM   29  C           1     175.235 182.971 271.069  0.00  0.00     0.008 A 
ENDBRANCH  23  24
ENDBRANCH  22  23
ENDBRANCH   8  22
TORSDOF 8
ENDMDL
MODEL 4
REMARK VINA RESULT:      -7.0      8.541     11.810
REMARK  8 active torsions:
REMARK  status: ('A' for Active; 'I' for Inactive)
REMARK    1  A    between atoms: C_8  and  S_20 
REMARK    2  A    between atoms: C_9  and  C_11 
REMARK    3  A    between atoms: C_11  and  N_12 
REMARK    4  A    between atoms: N_12  and  C_13 
REMARK    5  A    between atoms: C_13  and  C_14 
REMARK    6  A    between atoms: C_14  and  C_15 
REMARK    7  A    between atoms: S_20  and  C_21 
REMARK    8  A    between atoms: C_21  and  C_22 
ROOT
HETATM    1  C           1     171.851 185.167 286.933  0.00  0.00     0.001 A 
HETATM    2  C           1     171.822 186.507 287.302  0.00  0.00     0.002 A 
HETATM    3  C           1     172.181 187.492 286.377  0.00  0.00     0.032 A 
HETATM    4  C           1     172.572 187.173 285.084  0.00  0.00     0.068 A 
HETATM    5  C           1     172.599 185.811 284.714  0.00  0.00    -0.007 A 
HETATM    6  C           1     172.239 184.817 285.641  0.00  0.00     0.014 A 
HETATM    7  N           1     172.907 188.157 284.230  0.00  0.00    -0.241 NA
HETATM    8  C           1     173.283 187.810 282.979  0.00  0.00     0.102 A 
HETATM    9  C           1     173.341 186.506 282.525  0.00  0.00     0.006 A 
HETATM   10  C           1     172.994 185.492 283.407  0.00  0.00     0.025 A 
ENDROOT
BRANCH   9  11
HETATM   11  C           1     173.767 186.198 281.122  0.00  0.00     0.311 C 
BRANCH  11  12
HETATM   12  N           1     172.653 185.656 280.392  0.00  0.00     0.087 N 
HETATM   13  H           1     172.853 184.691 280.132  0.00  0.00     0.316 HD
BRANCH  12  14
HETATM   14  C           1     172.486 186.447 279.201  0.00  0.00     0.276 C 
BRANCH  14  15
HETATM   15  C           1     172.649 185.560 277.975  0.00  0.00     0.088 C 
BRANCH  15  16
HETATM   16  C           1     173.924 185.907 277.272  0.00  0.00     0.029 A 
HETATM   17  C           1     174.407 185.373 276.101  0.00  0.00     0.143 A 
HETATM   18  N           1     175.608 185.942 275.767  0.00  0.00    -0.254 NA
HETATM   19  C           1     175.858 186.810 276.720  0.00  0.00     0.207 A 
HETATM   20  N           1     174.863 186.823 277.657  0.00  0.00    -0.353 N 
HETATM   21  H           1     174.826 187.428 278.514  0.00  0.00     0.166 HD
ENDBRANCH  15  16
ENDBRANCH  14  15
ENDBRANCH  12  14
ENDBRANCH  11  12
ENDBRANCH   9  11
BRANCH   8  22
HETATM   22  S           1     173.737 189.137 281.827  0.00  0.00    -0.105 SA
BRANCH  22  23
HETATM   23  C           1     172.031 189.417 281.277  0.00  0.00     0.119 C 
BRANCH  23  24
HETATM   24  C           1     171.446 190.571 282.031  0.00  0.00    -0.049 A 
HETATM   25  C           1     171.965 191.854 281.854  0.00  0.00     0.008 A 
HETATM   26  C           1     171.421 192.929 282.557  0.00  0.00     0.001 A 
HETATM   27  C           1     170.359 192.721 283.437  0.00  0.00     0.000 A 
HETATM   28  C           1     169.840 191.438 283.614  0.00  0.00     0.001 A 
HETATM   29  C           1     170.383 190.364 282.911  0.00  0.00     0.008 A 
ENDBRANCH  23  24
ENDBRANCH  22  23
ENDBRANCH   8  22
TORSDOF 8
ENDMDL
MODEL 5
REMARK VINA RESULT:      -6.9      7.606     10.767
REMARK  8 active torsions:
REMARK  status: ('A' for Active; 'I' for Inactive)
REMARK    1  A    between atoms: C_8  and  S_20 
REMARK    2  A    between atoms: C_9  and  C_11 
REMARK    3  A    between atoms: C_11  and  N_12 
REMARK    4  A    between atoms: N_12  and  C_13 
REMARK    5  A    between atoms: C_13  and  C_14 
REMARK    6  A    between atoms: C_14  and  C_15 
REMARK    7  A    between atoms: S_20  and  C_21 
REMARK    8  A    between atoms: C_21  and  C_22 
ROOT
HETATM    1  C           1     171.509 191.564 281.804  0.00  0.00     0.001 A 
HETATM    2  C           1     170.722 191.566 280.657  0.00  0.00     0.002 A 
HETATM    3  C           1     170.685 190.433 279.837  0.00  0.00     0.032 A 
HETATM    4  C           1     171.417 189.291 280.135  0.00  0.00     0.068 A 
HETATM    5  C           1     172.212 189.295 281.300  0.00  0.00    -0.007 A 
HETATM    6  C           1     172.253 190.431 282.127  0.00  0.00     0.014 A 
HETATM    7  N           1     171.346 188.227 279.315  0.00  0.00    -0.241 NA
HETATM    8  C           1     172.071 187.132 279.634  0.00  0.00     0.102 A 
HETATM    9  C           1     172.879 187.040 280.752  0.00  0.00     0.006 A 
HETATM   10  C           1     172.949 188.140 281.597  0.00  0.00     0.025 A 
ENDROOT
BRANCH   9  11
HETATM   11  C           1     173.654 185.792 281.043  0.00  0.00     0.311 C 
BRANCH  11  12
HETATM   12  N           1     173.152 185.185 282.245  0.00  0.00     0.087 N 
HETATM   13  H           1     172.621 185.873 282.778  0.00  0.00     0.316 HD
BRANCH  12  14
HETATM   14  C           1     174.284 184.750 283.020  0.00  0.00     0.276 C 
BRANCH  14  15
HETATM   15  C           1     174.685 185.847 283.996  0.00  0.00     0.088 C 
BRANCH  15  16
HETATM   16  C           1     174.108 185.551 285.345  0.00  0.00     0.029 A 
HETATM   17  C           1     172.793 185.296 285.655  0.00  0.00     0.143 A 
HETATM   18  N           1     172.647 185.068 286.999  0.00  0.00    -0.254 NA
HETATM   19  C           1     173.854 185.183 287.504  0.00  0.00     0.207 A 
HETATM   20  N           1     174.774 185.477 286.537  0.00  0.00    -0.353 N 
HETATM   21  H           1     175.804 185.618 286.682  0.00  0.00     0.166 HD
ENDBRANCH  15  16
ENDBRANCH  14  15
ENDBRANCH  12  14
ENDBRANCH  11  12
ENDBRANCH   9  11
BRANCH   8  22
HETATM   22  S           1     171.979 185.696 278.528  0.00  0.00    -0.105 SA
BRANCH  22  23
HETATM   23  C           1     172.512 186.628 277.065  0.00  0.00     0.119 C 
BRANCH  23  24
HETATM   24  C           1     173.909 186.231 276.701  0.00  0.00    -0.049 A 
HETATM   25  C           1     174.127 185.298 275.687  0.00  0.00     0.008 A 
HETATM   26  C           1     175.429 184.928 275.350  0.00  0.00     0.001 A 
HETATM   27  C           1     176.512 185.490 276.025  0.00  0.00     0.000 A 
HETATM   28  C           1     176.294 186.423 277.039  0.00  0.00     0.001 A 
HETATM   29  C           1     174.992 186.794 277.377  0.00  0.00     0.008 A 
ENDBRANCH  23  24
ENDBRANCH  22  23
ENDBRANCH   8  22
TORSDOF 8
ENDMDL
MODEL 6
REMARK VINA RESULT:      -6.8      7.394     10.891
REMARK  8 active torsions:
REMARK  status: ('A' for Active; 'I' for Inactive)
REMARK    1  A    between atoms: C_8  and  S_20 
REMARK    2  A    between atoms: C_9  and  C_11 
REMARK    3  A    between atoms: C_11  and  N_12 
REMARK    4  A    between atoms: N_12  and  C_13 
REMARK    5  A    between atoms: C_13  and  C_14 
REMARK    6  A    between atoms: C_14  and  C_15 
REMARK    7  A    between atoms: S_20  and  C_21 
REMARK    8  A    between atoms: C_21  and  C_22 
ROOT
HETATM    1  C           1     170.311 191.065 281.260  0.00  0.00     0.001 A 
HETATM    2  C           1     171.083 191.301 282.392  0.00  0.00     0.002 A 
HETATM    3  C           1     172.129 190.431 282.717  0.00  0.00     0.032 A 
HETATM    4  C           1     172.426 189.322 281.935  0.00  0.00     0.068 A 
HETATM    5  C           1     171.640 189.087 280.787  0.00  0.00    -0.007 A 
HETATM    6  C           1     170.588 189.960 280.457  0.00  0.00     0.014 A 
HETATM    7  N           1     173.443 188.515 282.290  0.00  0.00    -0.241 NA
HETATM    8  C           1     173.705 187.446 281.506  0.00  0.00     0.102 A 
HETATM    9  C           1     172.992 187.133 280.364  0.00  0.00     0.006 A 
HETATM   10  C           1     171.944 187.968 280.000  0.00  0.00     0.025 A 
ENDROOT
BRANCH   9  11
HETATM   11  C           1     173.341 185.929 279.544  0.00  0.00     0.311 C 
BRANCH  11  12
HETATM   12  N           1     172.148 185.392 278.949  0.00  0.00     0.087 N 
HETATM   13  H           1     171.969 184.462 279.326  0.00  0.00     0.316 HD
BRANCH  12  14
HETATM   14  C           1     172.370 185.299 277.530  0.00  0.00     0.276 C 
BRANCH  14  15
HETATM   15  C           1     173.774 185.791 277.203  0.00  0.00     0.088 C 
BRANCH  15  16
HETATM   16  C           1     174.002 185.703 275.726  0.00  0.00     0.029 A 
HETATM   17  C           1     173.437 186.483 274.744  0.00  0.00     0.143 A 
HETATM   18  N           1     173.889 186.105 273.506  0.00  0.00    -0.254 NA
HETATM   19  C           1     174.715 185.110 273.727  0.00  0.00     0.207 A 
HETATM   20  N           1     174.815 184.829 275.060  0.00  0.00    -0.353 N 
HETATM   21  H           1     175.409 184.081 275.494  0.00  0.00     0.166 HD
ENDBRANCH  15  16
ENDBRANCH  14  15
ENDBRANCH  12  14
ENDBRANCH  11  12
ENDBRANCH   9  11
BRANCH   8  22
HETATM   22  S           1     175.074 186.355 281.983  0.00  0.00    -0.105 SA
BRANCH  22  23
HETATM   23  C           1     173.985 184.985 282.462  0.00  0.00     0.119 C 
BRANCH  23  24
HETATM   24  C           1     173.803 184.988 283.948  0.00  0.00    -0.049 A 
HETATM   25  C           1     172.564 185.319 284.498  0.00  0.00     0.008 A 
HETATM   26  C           1     172.395 185.322 285.883  0.00  0.00     0.001 A 
HETATM   27  C           1     173.464 184.995 286.717  0.00  0.00     0.000 A 
HETATM   28  C           1     174.703 184.664 286.167  0.00  0.00     0.001 A 
HETATM   29  C           1     174.872 184.661 284.783  0.00  0.00     0.008 A 
ENDBRANCH  23  24
ENDBRANCH  22  23
ENDBRANCH   8  22
TORSDOF 8
ENDMDL
MODEL 7
REMARK VINA RESULT:      -6.8      5.586      8.655
REMARK  8 active torsions:
REMARK  status: ('A' for Active; 'I' for Inactive)
REMARK    1  A    between atoms: C_8  and  S_20 
REMARK    2  A    between atoms: C_9  and  C_11 
REMARK    3  A    between atoms: C_11  and  N_12 
REMARK    4  A    between atoms: N_12  and  C_13 
REMARK    5  A    between atoms: C_13  and  C_14 
REMARK    6  A    between atoms: C_14  and  C_15 
REMARK    7  A    between atoms: S_20  and  C_21 
REMARK    8  A    between atoms: C_21  and  C_22 
ROOT
HETATM    1  C           1     176.486 185.563 274.457  0.00  0.00     0.001 A 
HETATM    2  C           1     177.300 186.361 275.255  0.00  0.00     0.002 A 
HETATM    3  C           1     176.831 186.819 276.491  0.00  0.00     0.032 A 
HETATM    4  C           1     175.562 186.498 276.955  0.00  0.00     0.068 A 
HETATM    5  C           1     174.741 185.688 276.142  0.00  0.00    -0.007 A 
HETATM    6  C           1     175.209 185.226 274.899  0.00  0.00     0.014 A 
HETATM    7  N           1     175.157 186.962 278.151  0.00  0.00    -0.241 NA
HETATM    8  C           1     173.917 186.631 278.572  0.00  0.00     0.102 A 
HETATM    9  C           1     173.040 185.844 277.848  0.00  0.00     0.006 A 
HETATM   10  C           1     173.461 185.366 276.614  0.00  0.00     0.025 A 
ENDROOT
BRANCH   9  11
HETATM   11  C           1     171.679 185.517 278.379  0.00  0.00     0.311 C 
BRANCH  11  12
HETATM   12  N           1     170.682 185.917 277.423  0.00  0.00     0.087 N 
HETATM   13  H           1     171.050 185.800 276.480  0.00  0.00     0.316 HD
BRANCH  12  14
HETATM   14  C           1     170.388 187.306 277.654  0.00  0.00     0.276 C 
BRANCH  14  15
HETATM   15  C           1     170.627 188.096 276.374  0.00  0.00     0.088 C 
BRANCH  15  16
HETATM   16  C           1     170.613 189.561 276.681  0.00  0.00     0.029 A 
HETATM   17  C           1     171.018 190.590 275.864  0.00  0.00     0.143 A 
HETATM   18  N           1     170.856 191.799 276.491  0.00  0.00    -0.254 NA
HETATM   19  C           1     170.361 191.513 277.673  0.00  0.00     0.207 A 
HETATM   20  N           1     170.198 190.166 277.834  0.00  0.00    -0.353 N 
HETATM   21  H           1     169.820 189.684 278.686  0.00  0.00     0.166 HD
ENDBRANCH  15  16
ENDBRANCH  14  15
ENDBRANCH  12  14
ENDBRANCH  11  12
ENDBRANCH   9  11
BRANCH   8  22
HETATM   22  S           1     173.368 187.257 280.184  0.00  0.00    -0.105 SA
BRANCH  22  23
HETATM   23  C           1     174.801 186.587 281.074  0.00  0.00     0.119 C 
BRANCH  23  24
HETATM   24  C           1     174.361 186.060 282.405  0.00  0.00    -0.049 A 
HETATM   25  C           1     175.283 185.440 283.249  0.00  0.00     0.008 A 
HETATM   26  C           1     174.872 184.949 284.488  0.00  0.00     0.001 A 
HETATM   27  C           1     173.541 185.077 284.884  0.00  0.00     0.000 A 
HETATM   28  C           1     172.619 185.697 284.040  0.00  0.00     0.001 A 
HETATM   29  C           1     173.029 186.188 282.801  0.00  0.00     0.008 A 
ENDBRANCH  23  24
ENDBRANCH  22  23
ENDBRANCH   8  22
TORSDOF 8
ENDMDL
MODEL 8
REMARK VINA RESULT:      -6.7      2.439      6.940
REMARK  8 active torsions:
REMARK  status: ('A' for Active; 'I' for Inactive)
REMARK    1  A    between atoms: C_8  and  S_20 
REMARK    2  A    between atoms: C_9  and  C_11 
REMARK    3  A    between atoms: C_11  and  N_12 
REMARK    4  A    between atoms: N_12  and  C_13 
REMARK    5  A    between atoms: C_13  and  C_14 
REMARK    6  A    between atoms: C_14  and  C_15 
REMARK    7  A    between atoms: S_20  and  C_21 
REMARK    8  A    between atoms: C_21  and  C_22 
ROOT
HETATM    1  C           1     175.448 192.046 270.639  0.00  0.00     0.001 A 
HETATM    2  C           1     174.476 192.473 271.538  0.00  0.00     0.002 A 
HETATM    3  C           1     173.823 191.541 272.352  0.00  0.00     0.032 A 
HETATM    4  C           1     174.117 190.186 272.292  0.00  0.00     0.068 A 
HETATM    5  C           1     175.105 189.758 271.379  0.00  0.00    -0.007 A 
HETATM    6  C           1     175.763 190.692 270.559  0.00  0.00     0.014 A 
HETATM    7  N           1     173.462 189.330 273.097  0.00  0.00    -0.241 NA
HETATM    8  C           1     173.773 188.017 273.012  0.00  0.00     0.102 A 
HETATM    9  C           1     174.724 187.503 272.150  0.00  0.00     0.006 A 
HETATM   10  C           1     175.399 188.389 271.321  0.00  0.00     0.025 A 
ENDROOT
BRANCH   9  11
HETATM   11  C           1     175.016 186.035 272.112  0.00  0.00     0.311 C 
BRANCH  11  12
HETATM   12  N           1     175.554 185.686 270.826  0.00  0.00     0.087 N 
HETATM   13  H           1     174.816 185.735 270.124  0.00  0.00     0.316 HD
BRANCH  12  14
HETATM   14  C           1     176.045 184.336 270.909  0.00  0.00     0.276 C 
BRANCH  14  15
HETATM   15  C           1     177.229 184.167 269.966  0.00  0.00     0.088 C 
BRANCH  15  16
HETATM   16  C           1     176.742 184.157 268.551  0.00  0.00     0.029 A 
HETATM   17  C           1     175.698 183.429 268.030  0.00  0.00     0.143 A 
HETATM   18  N           1     175.551 183.682 266.691  0.00  0.00    -0.254 NA
HETATM   19  C           1     176.491 184.550 266.396  0.00  0.00     0.207 A 
HETATM   20  N           1     177.239 184.868 267.494  0.00  0.00    -0.353 N 
HETATM   21  H           1     178.048 185.536 267.522  0.00  0.00     0.166 HD
ENDBRANCH  15  16
ENDBRANCH  14  15
ENDBRANCH  12  14
ENDBRANCH  11  12
ENDBRANCH   9  11
BRANCH   8  22
HETATM   22  S           1     172.889 186.860 274.096  0.00  0.00    -0.105 SA
BRANCH  22  23
HETATM   23  C           1     173.704 187.452 275.605  0.00  0.00     0.119 C 
BRANCH  23  24
HETATM   24  C           1     175.070 186.847 275.705  0.00  0.00    -0.049 A 
HETATM   25  C           1     175.211 185.486 275.974  0.00  0.00     0.008 A 
HETATM   26  C           1     176.484 184.923 276.068  0.00  0.00     0.001 A 
HETATM   27  C           1     177.615 185.720 275.894  0.00  0.00     0.000 A 
HETATM   28  C           1     177.474 187.082 275.625  0.00  0.00     0.001 A 
HETATM   29  C           1     176.202 187.645 275.531  0.00  0.00     0.008 A 
ENDBRANCH  23  24
ENDBRANCH  22  23
ENDBRANCH   8  22
TORSDOF 8
ENDMDL
MODEL 9
REMARK VINA RESULT:      -6.6      2.778      6.043
REMARK  8 active torsions:
REMARK  status: ('A' for Active; 'I' for Inactive)
REMARK    1  A    between atoms: C_8  and  S_20 
REMARK    2  A    between atoms: C_9  and  C_11 
REMARK    3  A    between atoms: C_11  and  N_12 
REMARK    4  A    between atoms: N_12  and  C_13 
REMARK    5  A    between atoms: C_13  and  C_14 
REMARK    6  A    between atoms: C_14  and  C_15 
REMARK    7  A    between atoms: S_20  and  C_21 
REMARK    8  A    between atoms: C_21  and  C_22 
ROOT
HETATM    1  C           1     174.900 190.870 269.452  0.00  0.00     0.001 A 
HETATM    2  C           1     174.431 190.095 268.396  0.00  0.00     0.002 A 
HETATM    3  C           1     174.427 188.701 268.503  0.00  0.00     0.032 A 
HETATM    4  C           1     174.882 188.054 269.645  0.00  0.00     0.068 A 
HETATM    5  C           1     175.356 188.845 270.714  0.00  0.00    -0.007 A 
HETATM    6  C           1     175.361 190.247 270.610  0.00  0.00     0.014 A 
HETATM    7  N           1     174.857 186.710 269.699  0.00  0.00    -0.241 NA
HETATM    8  C           1     175.307 186.113 270.825  0.00  0.00     0.102 A 
HETATM    9  C           1     175.789 186.801 271.923  0.00  0.00     0.006 A 
HETATM   10  C           1     175.813 188.188 271.865  0.00  0.00     0.025 A 
ENDROOT
BRANCH   9  11
HETATM   11  C           1     176.271 186.071 273.139  0.00  0.00     0.311 C 
BRANCH  11  12
HETATM   12  N           1     177.309 186.834 273.776  0.00  0.00     0.087 N 
HETATM   13  H           1     178.203 186.360 273.655  0.00  0.00     0.316 HD
BRANCH  12  14
HETATM   14  C           1     176.995 186.913 275.178  0.00  0.00     0.276 C 
BRANCH  14  15
HETATM   15  C           1     176.405 185.589 275.642  0.00  0.00     0.088 C 
BRANCH  15  16
HETATM   16  C           1     175.190 185.849 276.478  0.00  0.00     0.029 A 
HETATM   17  C           1     175.048 186.778 277.482  0.00  0.00     0.143 A 
HETATM   18  N           1     173.788 186.721 278.020  0.00  0.00    -0.254 NA
HETATM   19  C           1     173.170 185.772 277.356  0.00  0.00     0.207 A 
HETATM   20  N           1     173.982 185.213 276.410  0.00  0.00    -0.353 N 
HETATM   21  H           1     173.725 184.438 275.751  0.00  0.00     0.166 HD
ENDBRANCH  15  16
ENDBRANCH  14  15
ENDBRANCH  12  14
ENDBRANCH  11  12
ENDBRANCH   9  11
BRANCH   8  22
HETATM   22  S           1     175.275 184.301 270.900  0.00  0.00    -0.105 SA
BRANCH  22  23
HETATM   23  C           1     176.867 184.111 270.049  0.00  0.00     0.119 C 
BRANCH  23  24
HETATM   24  C           1     176.628 183.692 268.632  0.00  0.00    -0.049 A 
HETATM   25  C           1     175.863 182.558 268.359  0.00  0.00     0.008 A 
HETATM   26  C           1     175.641 182.169 267.038  0.00  0.00     0.001 A 
HETATM   27  C           1     176.185 182.911 265.991  0.00  0.00     0.000 A 
HETATM   28  C           1     176.951 184.045 266.263  0.00  0.00     0.001 A 
HETATM   29  C           1     177.173 184.435 267.584  0.00  0.00     0.008 A 
ENDBRANCH  23  24
ENDBRANCH  22  23
ENDBRANCH   8  22
TORSDOF 8
ENDMDL
