MODEL 1
REMARK VINA RESULT:      -7.5      0.000      0.000
REMARK  7 active torsions:
REMARK  status: ('A' for Active; 'I' for Inactive)
REMARK    1  A    between atoms: C_8  and  S_23 
REMARK    2  A    between atoms: C_9  and  C_11 
REMARK    3  A    between atoms: C_11  and  N_12 
REMARK    4  A    between atoms: N_12  and  C_13 
REMARK    5  A    between atoms: C_13  and  C_14 
REMARK    6  A    between atoms: C_14  and  C_15 
REMARK    7  A    between atoms: N_18  and  C_21 
ROOT
HETATM    1  C           1     173.812 185.191 287.538  0.00  0.00     0.311 C 
ENDROOT
BRANCH   1   2
HETATM    2  C           1     173.119 185.895 288.662  0.00  0.00     0.006 A 
HETATM    3  C           1     172.352 187.021 288.432  0.00  0.00     0.101 A 
HETATM    4  N           1     171.701 187.701 289.402  0.00  0.00    -0.241 NA
HETATM    5  C           1     171.808 187.255 290.666  0.00  0.00     0.068 A 
HETATM    6  C           1     171.153 187.930 291.687  0.00  0.00     0.032 A 
HETATM    7  C           1     172.568 186.114 291.002  0.00  0.00    -0.007 A 
HETATM    8  C           1     171.231 187.506 293.018  0.00  0.00     0.002 A 
HETATM    9  C           1     171.982 186.382 293.344  0.00  0.00     0.001 A 
HETATM   10  C           1     172.650 185.685 292.339  0.00  0.00     0.014 A 
HETATM   11  C           1     173.228 185.435 289.969  0.00  0.00     0.025 A 
BRANCH   3  12
HETATM   12  S           1     172.210 187.622 286.726  0.00  0.00    -0.114 SA
HETATM   13  C           1     170.472 188.114 286.910  0.00  0.00     0.097 C 
ENDBRANCH   3  12
ENDBRANCH   1   2
BRANCH   1  14
HETATM   14  N           1     175.192 185.594 287.497  0.00  0.00     0.087 N 
HETATM   15  H           1     175.271 186.565 287.801  0.00  0.00     0.316 HD
BRANCH  14  16
HETATM   16  C           1     175.641 185.480 286.136  0.00  0.00     0.270 C 
BRANCH  16  17
HETATM   17  C           1     174.852 184.383 285.430  0.00  0.00     0.034 C 
BRANCH  17  18
HETATM   18  C           1     174.595 184.790 283.986  0.00  0.00    -0.010 C 
HETATM   19  C           1     173.157 185.279 283.851  0.00  0.00     0.035 C 
HETATM   20  C           1     172.904 185.881 282.470  0.00  0.00     0.272 C 
HETATM   21  N           1     173.854 186.954 282.170  0.00  0.00     0.088 N 
HETATM   22  C           1     175.236 186.473 282.222  0.00  0.00     0.272 C 
HETATM   23  C           1     175.575 185.893 283.594  0.00  0.00     0.035 C 
BRANCH  21  24
HETATM   24  C           1     173.583 187.358 280.817  0.00  0.00     0.268 C 
HETATM   25  C           1     172.875 186.227 280.082  0.00  0.00     0.037 C 
ENDBRANCH  21  24
ENDBRANCH  17  18
ENDBRANCH  16  17
ENDBRANCH  14  16
ENDBRANCH   1  14
TORSDOF 7
ENDMDL
MODEL 2
REMARK VINA RESULT:      -7.5      4.164     11.112
REMARK  7 active torsions:
REMARK  status: ('A' for Active; 'I' for Inactive)
REMARK    1  A    between atoms: C_8  and  S_23 
REMARK    2  A    between atoms: C_9  and  C_11 
REMARK    3  A    between atoms: C_11  and  N_12 
REMARK    4  A    between atoms: N_12  and  C_13 
REMARK    5  A    between atoms: C_13  and  C_14 
REMARK    6  A    between atoms: C_14  and  C_15 
REMARK    7  A    between atoms: N_18  and  C_21 
ROOT
HETATM    1  C           1     173.729 186.829 279.499  0.00  0.00     0.311 C 
ENDROOT
BRANCH   1   2
HETATM    2  C           1     174.198 186.470 278.123  0.00  0.00     0.006 A 
HETATM    3  C           1     173.394 185.748 277.262  0.00  0.00     0.101 A 
HETATM    4  N           1     173.758 185.394 276.010  0.00  0.00    -0.241 NA
HETATM    5  C           1     174.976 185.765 275.578  0.00  0.00     0.068 A 
HETATM    6  C           1     175.383 185.418 274.296  0.00  0.00     0.032 A 
HETATM    7  C           1     175.870 186.504 276.382  0.00  0.00    -0.007 A 
HETATM    8  C           1     176.639 185.780 273.799  0.00  0.00     0.002 A 
HETATM    9  C           1     177.516 186.508 274.596  0.00  0.00     0.001 A 
HETATM   10  C           1     177.134 186.870 275.886  0.00  0.00     0.014 A 
HETATM   11  C           1     175.456 186.853 277.675  0.00  0.00     0.025 A 
BRANCH   3  12
HETATM   12  S           1     171.751 185.248 277.848  0.00  0.00    -0.114 SA
HETATM   13  C           1     170.891 186.582 276.967  0.00  0.00     0.097 C 
ENDBRANCH   3  12
ENDBRANCH   1   2
BRANCH   1  14
HETATM   14  N           1     174.856 187.208 280.306  0.00  0.00     0.087 N 
HETATM   15  H           1     175.687 186.713 279.984  0.00  0.00     0.316 HD
BRANCH  14  16
HETATM   16  C           1     174.569 186.829 281.663  0.00  0.00     0.270 C 
BRANCH  16  17
HETATM   17  C           1     173.886 185.467 281.677  0.00  0.00     0.034 C 
BRANCH  17  18
HETATM   18  C           1     173.623 185.045 283.116  0.00  0.00    -0.010 C 
HETATM   19  C           1     174.944 185.011 283.878  0.00  0.00     0.035 C 
HETATM   20  C           1     174.716 184.783 285.371  0.00  0.00     0.272 C 
HETATM   21  N           1     173.810 185.785 285.934  0.00  0.00     0.088 N 
HETATM   22  C           1     172.511 185.770 285.259  0.00  0.00     0.272 C 
HETATM   23  C           1     172.657 186.035 283.761  0.00  0.00     0.035 C 
BRANCH  21  24
HETATM   24  C           1     173.594 185.400 287.303  0.00  0.00     0.268 C 
HETATM   25  C           1     172.117 185.097 287.519  0.00  0.00     0.037 C 
ENDBRANCH  21  24
ENDBRANCH  17  18
ENDBRANCH  16  17
ENDBRANCH  14  16
ENDBRANCH   1  14
TORSDOF 7
ENDMDL
MODEL 3
REMARK VINA RESULT:      -7.1      1.809      3.034
REMARK  7 active torsions:
REMARK  status: ('A' for Active; 'I' for Inactive)
REMARK    1  A    between atoms: C_8  and  S_23 
REMARK    2  A    between atoms: C_9  and  C_11 
REMARK    3  A    between atoms: C_11  and  N_12 
REMARK    4  A    between atoms: N_12  and  C_13 
REMARK    5  A    between atoms: C_13  and  C_14 
REMARK    6  A    between atoms: C_14  and  C_15 
REMARK    7  A    between atoms: N_18  and  C_21 
ROOT
HETATM    1  C           1     172.043 186.980 285.680  0.00  0.00     0.311 C 
ENDROOT
BRANCH   1   2
HETATM    2  C           1     172.243 186.791 287.151  0.00  0.00     0.006 A 
HETATM    3  C           1     173.067 185.794 287.636  0.00  0.00     0.101 A 
HETATM    4  N           1     173.289 185.572 288.950  0.00  0.00    -0.241 NA
HETATM    5  C           1     172.671 186.370 289.838  0.00  0.00     0.068 A 
HETATM    6  C           1     172.877 186.171 291.197  0.00  0.00     0.032 A 
HETATM    7  C           1     171.810 187.417 289.442  0.00  0.00    -0.007 A 
HETATM    8  C           1     172.258 186.973 292.161  0.00  0.00     0.002 A 
HETATM    9  C           1     171.411 188.002 291.765  0.00  0.00     0.001 A 
HETATM   10  C           1     171.186 188.225 290.409  0.00  0.00     0.014 A 
HETATM   11  C           1     171.605 187.615 288.070  0.00  0.00     0.025 A 
BRANCH   3  12
HETATM   12  S           1     173.900 184.718 286.436  0.00  0.00    -0.114 SA
HETATM   13  C           1     175.551 185.379 286.798  0.00  0.00     0.097 C 
ENDBRANCH   3  12
ENDBRANCH   1   2
BRANCH   1  14
HETATM   14  N           1     173.020 187.909 285.178  0.00  0.00     0.087 N 
HETATM   15  H           1     172.747 188.858 285.432  0.00  0.00     0.316 HD
BRANCH  14  16
HETATM   16  C           1     173.047 187.784 283.746  0.00  0.00     0.270 C 
BRANCH  16  17
HETATM   17  C           1     174.352 187.124 283.317  0.00  0.00     0.034 C 
BRANCH  17  18
HETATM   18  C           1     174.192 186.542 281.919  0.00  0.00    -0.010 C 
HETATM   19  C           1     172.708 186.457 281.578  0.00  0.00     0.035 C 
HETATM   20  C           1     172.497 186.064 280.118  0.00  0.00     0.272 C 
HETATM   21  N           1     173.193 186.978 279.211  0.00  0.00     0.088 N 
HETATM   22  C           1     174.631 187.007 279.481  0.00  0.00     0.272 C 
HETATM   23  C           1     174.921 187.435 280.919  0.00  0.00     0.035 C 
BRANCH  21  24
HETATM   24  C           1     173.008 186.443 277.889  0.00  0.00     0.268 C 
HETATM   25  C           1     172.015 185.289 277.942  0.00  0.00     0.037 C 
ENDBRANCH  21  24
ENDBRANCH  17  18
ENDBRANCH  16  17
ENDBRANCH  14  16
ENDBRANCH   1  14
TORSDOF 7
ENDMDL
MODEL 4
REMARK VINA RESULT:      -6.9     12.786     15.806
REMARK  7 active torsions:
REMARK  status: ('A' for Active; 'I' for Inactive)
REMARK    1  A    between atoms: C_8  and  S_23 
REMARK    2  A    between atoms: C_9  and  C_11 
REMARK    3  A    between atoms: C_11  and  N_12 
REMARK    4  A    between atoms: N_12  and  C_13 
REMARK    5  A    between atoms: C_13  and  C_14 
REMARK    6  A    between atoms: C_14  and  C_15 
REMARK    7  A    between atoms: N_18  and  C_21 
ROOT
HETATM    1  C           1     172.650 186.404 271.883  0.00  0.00     0.311 C 
ENDROOT
BRANCH   1   2
HETATM    2  C           1     173.972 186.390 272.584  0.00  0.00     0.006 A 
HETATM    3  C           1     175.077 187.010 272.033  0.00  0.00     0.101 A 
HETATM    4  N           1     176.296 187.034 272.615  0.00  0.00    -0.241 NA
HETATM    5  C           1     176.442 186.416 273.801  0.00  0.00     0.068 A 
HETATM    6  C           1     177.681 186.421 274.427  0.00  0.00     0.032 A 
HETATM    7  C           1     175.374 185.756 274.444  0.00  0.00    -0.007 A 
HETATM    8  C           1     177.886 185.795 275.661  0.00  0.00     0.002 A 
HETATM    9  C           1     176.829 185.145 276.290  0.00  0.00     0.001 A 
HETATM   10  C           1     175.575 185.124 275.685  0.00  0.00     0.014 A 
HETATM   11  C           1     174.124 185.753 273.809  0.00  0.00     0.025 A 
BRANCH   3  12
HETATM   12  S           1     174.878 187.842 270.433  0.00  0.00    -0.114 SA
HETATM   13  C           1     175.560 189.417 271.024  0.00  0.00     0.097 C 
ENDBRANCH   3  12
ENDBRANCH   1   2
BRANCH   1  14
HETATM   14  N           1     171.990 185.142 272.078  0.00  0.00     0.087 N 
HETATM   15  H           1     172.388 184.672 272.892  0.00  0.00     0.316 HD
BRANCH  14  16
HETATM   16  C           1     172.218 184.343 270.905  0.00  0.00     0.270 C 
BRANCH  16  17
HETATM   17  C           1     173.154 183.190 271.247  0.00  0.00     0.034 C 
BRANCH  17  18
HETATM   18  C           1     174.313 183.166 270.261  0.00  0.00    -0.010 C 
HETATM   19  C           1     174.051 184.183 269.155  0.00  0.00     0.035 C 
HETATM   20  C           1     175.269 184.339 268.246  0.00  0.00     0.272 C 
HETATM   21  N           1     176.466 184.691 269.010  0.00  0.00     0.088 N 
HETATM   22  C           1     176.769 183.679 270.024  0.00  0.00     0.272 C 
HETATM   23  C           1     175.607 183.499 270.999  0.00  0.00     0.035 C 
BRANCH  21  24
HETATM   24  C           1     177.551 184.701 268.066  0.00  0.00     0.268 C 
HETATM   25  C           1     177.095 184.059 266.762  0.00  0.00     0.037 C 
ENDBRANCH  21  24
ENDBRANCH  17  18
ENDBRANCH  16  17
ENDBRANCH  14  16
ENDBRANCH   1  14
TORSDOF 7
ENDMDL
MODEL 5
REMARK VINA RESULT:      -6.9      3.798      6.748
REMARK  7 active torsions:
REMARK  status: ('A' for Active; 'I' for Inactive)
REMARK    1  A    between atoms: C_8  and  S_23 
REMARK    2  A    between atoms: C_9  and  C_11 
REMARK    3  A    between atoms: C_11  and  N_12 
REMARK    4  A    between atoms: N_12  and  C_13 
REMARK    5  A    between atoms: C_13  and  C_14 
REMARK    6  A    between atoms: C_14  and  C_15 
REMARK    7  A    between atoms: N_18  and  C_21 
ROOT
HETATM    1  C           1     172.956 187.032 280.769  0.00  0.00     0.311 C 
ENDROOT
BRANCH   1   2
HETATM    2  C           1     172.916 187.108 282.263  0.00  0.00     0.006 A 
HETATM    3  C           1     173.169 188.294 282.923  0.00  0.00     0.101 A 
HETATM    4  N           1     173.148 188.429 284.268  0.00  0.00    -0.241 NA
HETATM    5  C           1     172.864 187.341 285.006  0.00  0.00     0.068 A 
HETATM    6  C           1     172.834 187.444 286.391  0.00  0.00     0.032 A 
HETATM    7  C           1     172.591 186.084 284.425  0.00  0.00    -0.007 A 
HETATM    8  C           1     172.544 186.343 287.204  0.00  0.00     0.002 A 
HETATM    9  C           1     172.276 185.107 286.626  0.00  0.00     0.001 A 
HETATM   10  C           1     172.299 184.976 285.240  0.00  0.00     0.014 A 
HETATM   11  C           1     172.622 185.985 283.028  0.00  0.00     0.025 A 
BRANCH   3  12
HETATM   12  S           1     173.552 189.760 281.925  0.00  0.00    -0.114 SA
HETATM   13  C           1     172.021 190.624 282.376  0.00  0.00     0.097 C 
ENDBRANCH   3  12
ENDBRANCH   1   2
BRANCH   1  14
HETATM   14  N           1     173.087 185.659 280.361  0.00  0.00     0.087 N 
HETATM   15  H           1     174.072 185.445 280.201  0.00  0.00     0.316 HD
BRANCH  14  16
HETATM   16  C           1     172.355 185.496 279.134  0.00  0.00     0.270 C 
BRANCH  16  17
HETATM   17  C           1     172.808 186.546 278.128  0.00  0.00     0.034 C 
BRANCH  17  18
HETATM   18  C           1     173.972 186.000 277.311  0.00  0.00    -0.010 C 
HETATM   19  C           1     173.511 185.768 275.876  0.00  0.00     0.035 C 
HETATM   20  C           1     174.686 185.406 274.970  0.00  0.00     0.272 C 
HETATM   21  N           1     175.740 186.421 275.026  0.00  0.00     0.088 N 
HETATM   22  C           1     176.241 186.594 276.390  0.00  0.00     0.272 C 
HETATM   23  C           1     175.124 187.001 277.350  0.00  0.00     0.035 C 
BRANCH  21  24
HETATM   24  C           1     176.821 185.916 274.225  0.00  0.00     0.268 C 
HETATM   25  C           1     178.150 186.312 274.855  0.00  0.00     0.037 C 
ENDBRANCH  21  24
ENDBRANCH  17  18
ENDBRANCH  16  17
ENDBRANCH  14  16
ENDBRANCH   1  14
TORSDOF 7
ENDMDL
MODEL 6
REMARK VINA RESULT:      -6.9      1.950      8.635
REMARK  7 active torsions:
REMARK  status: ('A' for Active; 'I' for Inactive)
REMARK    1  A    between atoms: C_8  and  S_23 
REMARK    2  A    between atoms: C_9  and  C_11 
REMARK    3  A    between atoms: C_11  and  N_12 
REMARK    4  A    between atoms: N_12  and  C_13 
REMARK    5  A    between atoms: C_13  and  C_14 
REMARK    6  A    between atoms: C_14  and  C_15 
REMARK    7  A    between atoms: N_18  and  C_21 
ROOT
HETATM    1  C           1     174.988 186.380 282.566  0.00  0.00     0.311 C 
ENDROOT
BRANCH   1   2
HETATM    2  C           1     173.923 186.724 281.572  0.00  0.00     0.006 A 
HETATM    3  C           1     173.206 187.900 281.675  0.00  0.00     0.101 A 
HETATM    4  N           1     172.234 188.269 280.811  0.00  0.00    -0.241 NA
HETATM    5  C           1     171.949 187.441 279.790  0.00  0.00     0.068 A 
HETATM    6  C           1     170.957 187.788 278.884  0.00  0.00     0.032 A 
HETATM    7  C           1     172.627 186.217 279.600  0.00  0.00    -0.007 A 
HETATM    8  C           1     170.623 186.962 277.805  0.00  0.00     0.002 A 
HETATM    9  C           1     171.293 185.758 277.622  0.00  0.00     0.001 A 
HETATM   10  C           1     172.293 185.384 278.517  0.00  0.00     0.014 A 
HETATM   11  C           1     173.628 185.870 280.517  0.00  0.00     0.025 A 
BRANCH   3  12
HETATM   12  S           1     173.591 189.017 283.053  0.00  0.00    -0.114 SA
HETATM   13  C           1     172.262 188.376 284.110  0.00  0.00     0.097 C 
ENDBRANCH   3  12
ENDBRANCH   1   2
BRANCH   1  14
HETATM   14  N           1     174.887 184.988 282.914  0.00  0.00     0.087 N 
HETATM   15  H           1     174.434 184.481 282.155  0.00  0.00     0.316 HD
BRANCH  14  16
HETATM   16  C           1     174.084 184.892 284.102  0.00  0.00     0.270 C 
BRANCH  16  17
HETATM   17  C           1     174.988 184.705 285.315  0.00  0.00     0.034 C 
BRANCH  17  18
HETATM   18  C           1     174.142 184.674 286.580  0.00  0.00    -0.010 C 
HETATM   19  C           1     174.701 185.678 287.581  0.00  0.00     0.035 C 
HETATM   20  C           1     173.779 185.828 288.790  0.00  0.00     0.272 C 
HETATM   21  N           1     172.420 186.191 288.384  0.00  0.00     0.088 N 
HETATM   22  C           1     171.846 185.190 287.483  0.00  0.00     0.272 C 
HETATM   23  C           1     172.698 185.017 286.226  0.00  0.00     0.035 C 
BRANCH  21  24
HETATM   24  C           1     171.635 186.194 289.589  0.00  0.00     0.268 C 
HETATM   25  C           1     172.494 186.665 290.755  0.00  0.00     0.037 C 
ENDBRANCH  21  24
ENDBRANCH  17  18
ENDBRANCH  16  17
ENDBRANCH  14  16
ENDBRANCH   1  14
TORSDOF 7
ENDMDL
MODEL 7
REMARK VINA RESULT:      -6.5     12.442     15.460
REMARK  7 active torsions:
REMARK  status: ('A' for Active; 'I' for Inactive)
REMARK    1  A    between atoms: C_8  and  S_23 
REMARK    2  A    between atoms: C_9  and  C_11 
REMARK    3  A    between atoms: C_11  and  N_12 
REMARK    4  A    between atoms: N_12  and  C_13 
REMARK    5  A    between atoms: C_13  and  C_14 
REMARK    6  A    between atoms: C_14  and  C_15 
REMARK    7  A    between atoms: N_18  and  C_21 
ROOT
HETATM    1  C           1     175.066 188.241 271.222  0.00  0.00     0.311 C 
ENDROOT
BRANCH   1   2
HETATM    2  C           1     175.272 187.363 272.417  0.00  0.00     0.006 A 
HETATM    3  C           1     174.273 186.519 272.862  0.00  0.00     0.101 A 
HETATM    4  N           1     174.395 185.702 273.931  0.00  0.00    -0.241 NA
HETATM    5  C           1     175.561 185.713 274.603  0.00  0.00     0.068 A 
HETATM    6  C           1     175.721 184.887 275.707  0.00  0.00     0.032 A 
HETATM    7  C           1     176.641 186.540 274.227  0.00  0.00    -0.007 A 
HETATM    8  C           1     176.913 184.860 276.439  0.00  0.00     0.002 A 
HETATM    9  C           1     177.974 185.677 276.065  0.00  0.00     0.001 A 
HETATM   10  C           1     177.841 186.516 274.961  0.00  0.00     0.014 A 
HETATM   11  C           1     176.475 187.372 273.112  0.00  0.00     0.025 A 
BRANCH   3  12
HETATM   12  S           1     172.701 186.506 271.954  0.00  0.00    -0.114 SA
HETATM   13  C           1     171.801 187.407 273.248  0.00  0.00     0.097 C 
ENDBRANCH   3  12
ENDBRANCH   1   2
BRANCH   1  14
HETATM   14  N           1     175.904 189.404 271.332  0.00  0.00     0.087 N 
HETATM   15  H           1     175.651 189.928 272.169  0.00  0.00     0.316 HD
BRANCH  14  16
HETATM   16  C           1     175.675 190.219 270.169  0.00  0.00     0.270 C 
BRANCH  16  17
HETATM   17  C           1     175.706 191.690 270.565  0.00  0.00     0.034 C 
BRANCH  17  18
HETATM   18  C           1     174.493 192.011 271.427  0.00  0.00    -0.010 C 
HETATM   19  C           1     174.662 193.400 272.033  0.00  0.00     0.035 C 
HETATM   20  C           1     173.390 193.851 272.748  0.00  0.00     0.272 C 
HETATM   21  N           1     172.230 193.805 271.857  0.00  0.00     0.088 N 
HETATM   22  C           1     172.014 192.456 271.331  0.00  0.00     0.272 C 
HETATM   23  C           1     173.235 191.953 270.563  0.00  0.00     0.035 C 
BRANCH  21  24
HETATM   24  C           1     171.092 194.144 272.668  0.00  0.00     0.268 C 
HETATM   25  C           1     171.105 193.303 273.938  0.00  0.00     0.037 C 
ENDBRANCH  21  24
ENDBRANCH  17  18
ENDBRANCH  16  17
ENDBRANCH  14  16
ENDBRANCH   1  14
TORSDOF 7
ENDMDL
MODEL 8
REMARK VINA RESULT:      -6.4      3.863     10.918
REMARK  7 active torsions:
REMARK  status: ('A' for Active; 'I' for Inactive)
REMARK    1  A    between atoms: C_8  and  S_23 
REMARK    2  A    between atoms: C_9  and  C_11 
REMARK    3  A    between atoms: C_11  and  N_12 
REMARK    4  A    between atoms: N_12  and  C_13 
REMARK    5  A    between atoms: C_13  and  C_14 
REMARK    6  A    between atoms: C_14  and  C_15 
REMARK    7  A    between atoms: N_18  and  C_21 
ROOT
HETATM    1  C           1     172.074 186.394 279.772  0.00  0.00     0.311 C 
ENDROOT
BRANCH   1   2
HETATM    2  C           1     172.423 186.316 278.319  0.00  0.00     0.006 A 
HETATM    3  C           1     171.541 186.752 277.350  0.00  0.00     0.101 A 
HETATM    4  N           1     171.796 186.710 276.023  0.00  0.00    -0.241 NA
HETATM    5  C           1     172.981 186.211 275.624  0.00  0.00     0.068 A 
HETATM    6  C           1     173.276 186.152 274.269  0.00  0.00     0.032 A 
HETATM    7  C           1     173.948 185.740 276.538  0.00  0.00    -0.007 A 
HETATM    8  C           1     174.493 185.644 273.802  0.00  0.00     0.002 A 
HETATM    9  C           1     175.442 185.181 274.707  0.00  0.00     0.001 A 
HETATM   10  C           1     175.172 185.228 276.072  0.00  0.00     0.014 A 
HETATM   11  C           1     173.646 185.802 277.905  0.00  0.00     0.025 A 
BRANCH   3  12
HETATM   12  S           1     169.945 187.424 277.890  0.00  0.00    -0.114 SA
HETATM   13  C           1     170.435 189.150 277.618  0.00  0.00     0.097 C 
ENDBRANCH   3  12
ENDBRANCH   1   2
BRANCH   1  14
HETATM   14  N           1     173.027 185.635 280.537  0.00  0.00     0.087 N 
HETATM   15  H           1     172.670 184.692 280.685  0.00  0.00     0.316 HD
BRANCH  14  16
HETATM   16  C           1     173.189 186.291 281.806  0.00  0.00     0.270 C 
BRANCH  16  17
HETATM   17  C           1     173.459 185.249 282.886  0.00  0.00     0.034 C 
BRANCH  17  18
HETATM   18  C           1     173.760 185.949 284.204  0.00  0.00    -0.010 C 
HETATM   19  C           1     172.472 186.547 284.760  0.00  0.00     0.035 C 
HETATM   20  C           1     172.679 187.092 286.172  0.00  0.00     0.272 C 
HETATM   21  N           1     173.212 186.066 287.069  0.00  0.00     0.088 N 
HETATM   22  C           1     174.489 185.541 286.582  0.00  0.00     0.272 C 
HETATM   23  C           1     174.349 184.939 285.185  0.00  0.00     0.035 C 
BRANCH  21  24
HETATM   24  C           1     173.461 186.725 288.322  0.00  0.00     0.268 C 
HETATM   25  C           1     173.982 185.714 289.334  0.00  0.00     0.037 C 
ENDBRANCH  21  24
ENDBRANCH  17  18
ENDBRANCH  16  17
ENDBRANCH  14  16
ENDBRANCH   1  14
TORSDOF 7
ENDMDL
MODEL 9
REMARK VINA RESULT:      -6.3     11.996     17.203
REMARK  7 active torsions:
REMARK  status: ('A' for Active; 'I' for Inactive)
REMARK    1  A    between atoms: C_8  and  S_23 
REMARK    2  A    between atoms: C_9  and  C_11 
REMARK    3  A    between atoms: C_11  and  N_12 
REMARK    4  A    between atoms: N_12  and  C_13 
REMARK    5  A    between atoms: C_13  and  C_14 
REMARK    6  A    between atoms: C_14  and  C_15 
REMARK    7  A    between atoms: N_18  and  C_21 
ROOT
HETATM    1  C           1     175.781 185.041 270.510  0.00  0.00     0.311 C 
ENDROOT
BRANCH   1   2
HETATM    2  C           1     175.709 185.224 271.994  0.00  0.00     0.006 A 
HETATM    3  C           1     174.572 184.879 272.699  0.00  0.00     0.101 A 
HETATM    4  N           1     174.444 185.018 274.037  0.00  0.00    -0.241 NA
HETATM    5  C           1     175.486 185.523 274.722  0.00  0.00     0.068 A 
HETATM    6  C           1     175.389 185.679 276.098  0.00  0.00     0.032 A 
HETATM    7  C           1     176.690 185.904 274.092  0.00  0.00    -0.007 A 
HETATM    8  C           1     176.444 186.198 276.856  0.00  0.00     0.002 A 
HETATM    9  C           1     177.628 186.573 276.230  0.00  0.00     0.001 A 
HETATM   10  C           1     177.753 186.426 274.851  0.00  0.00     0.014 A 
HETATM   11  C           1     176.785 185.744 272.703  0.00  0.00     0.025 A 
BRANCH   3  12
HETATM   12  S           1     173.168 184.199 271.774  0.00  0.00    -0.114 SA
HETATM   13  C           1     172.189 185.723 271.891  0.00  0.00     0.097 C 
ENDBRANCH   3  12
ENDBRANCH   1   2
BRANCH   1  14
HETATM   14  N           1     176.548 183.863 270.208  0.00  0.00     0.087 N 
HETATM   15  H           1     177.531 184.034 270.421  0.00  0.00     0.316 HD
BRANCH  14  16
HETATM   16  C           1     176.402 183.594 268.803  0.00  0.00     0.270 C 
BRANCH  16  17
HETATM   17  C           1     177.335 184.503 268.011  0.00  0.00     0.034 C 
BRANCH  17  18
HETATM   18  C           1     176.820 184.642 266.585  0.00  0.00    -0.010 C 
HETATM   19  C           1     177.158 183.377 265.805  0.00  0.00     0.035 C 
HETATM   20  C           1     176.496 183.382 264.428  0.00  0.00     0.272 C 
HETATM   21  N           1     175.047 183.566 264.531  0.00  0.00     0.088 N 
HETATM   22  C           1     174.714 184.818 265.211  0.00  0.00     0.272 C 
HETATM   23  C           1     175.311 184.866 266.617  0.00  0.00     0.035 C 
BRANCH  21  24
HETATM   24  C           1     174.563 183.660 263.180  0.00  0.00     0.268 C 
HETATM   25  C           1     174.278 185.119 262.844  0.00  0.00     0.037 C 
ENDBRANCH  21  24
ENDBRANCH  17  18
ENDBRANCH  16  17
ENDBRANCH  14  16
ENDBRANCH   1  14
TORSDOF 7
ENDMDL
