MODEL 1
REMARK VINA RESULT:      -8.8      0.000      0.000
REMARK  7 active torsions:
REMARK  status: ('A' for Active; 'I' for Inactive)
REMARK    1  A    between atoms: C_8  and  S_26 
REMARK    2  A    between atoms: C_9  and  C_11 
REMARK    3  A    between atoms: C_11  and  N_12 
REMARK    4  A    between atoms: N_12  and  C_13 
REMARK    5  A    between atoms: C_13  and  C_14 
REMARK    6  A    between atoms: C_14  and  C_15 
REMARK    7  A    between atoms: N_18  and  C_21 
ROOT
HETATM    1  N           1     174.790 187.110 280.429  0.00  0.00     0.087 N 
HETATM    2  H           1     175.561 186.475 280.228  0.00  0.00     0.316 HD
ENDROOT
BRANCH   1   3
HETATM    3  C           1     173.678 186.802 279.570  0.00  0.00     0.311 C 
BRANCH   3   4
HETATM    4  C           1     174.181 186.462 278.203  0.00  0.00     0.006 A 
HETATM    5  C           1     173.391 185.769 277.305  0.00  0.00     0.101 A 
HETATM    6  N           1     173.784 185.431 276.058  0.00  0.00    -0.241 NA
HETATM    7  C           1     175.021 185.789 275.667  0.00  0.00     0.068 A 
HETATM    8  C           1     175.459 185.458 274.391  0.00  0.00     0.032 A 
HETATM    9  C           1     175.904 186.497 276.510  0.00  0.00    -0.007 A 
HETATM   10  C           1     176.734 185.807 273.938  0.00  0.00     0.002 A 
HETATM   11  C           1     177.600 186.504 274.773  0.00  0.00     0.001 A 
HETATM   12  C           1     177.187 186.851 276.057  0.00  0.00     0.014 A 
HETATM   13  C           1     175.458 186.830 277.797  0.00  0.00     0.025 A 
BRANCH   5  14
HETATM   14  S           1     171.723 185.286 277.834  0.00  0.00    -0.114 SA
HETATM   15  C           1     170.900 186.553 276.826  0.00  0.00     0.097 C 
ENDBRANCH   5  14
ENDBRANCH   3   4
ENDBRANCH   1   3
BRANCH   1  16
HETATM   16  C           1     174.357 186.925 281.788  0.00  0.00     0.270 C 
BRANCH  16  17
HETATM   17  C           1     174.261 185.437 282.092  0.00  0.00     0.034 C 
BRANCH  17  18
HETATM   18  C           1     173.751 185.240 283.514  0.00  0.00    -0.010 C 
HETATM   19  C           1     174.931 185.278 284.479  0.00  0.00     0.035 C 
HETATM   20  C           1     174.459 185.281 285.932  0.00  0.00     0.273 C 
HETATM   21  N           1     173.531 186.382 286.191  0.00  0.00     0.093 N 
HETATM   22  C           1     172.357 186.309 285.320  0.00  0.00     0.273 C 
HETATM   23  C           1     172.752 186.344 283.845  0.00  0.00     0.035 C 
BRANCH  21  24
HETATM   24  C           1     173.081 186.211 287.547  0.00  0.00     0.223 C 
HETATM   25  C           1     174.194 185.656 288.423  0.00  0.00     0.036 C 
HETATM   26  C           1     173.912 186.190 289.827  0.00  0.00     0.002 C 
HETATM   27  C           1     172.818 187.244 289.675  0.00  0.00     0.002 C 
HETATM   28  C           1     172.765 187.552 288.187  0.00  0.00     0.036 C 
ENDBRANCH  21  24
ENDBRANCH  17  18
ENDBRANCH  16  17
ENDBRANCH   1  16
TORSDOF 7
ENDMDL
MODEL 2
REMARK VINA RESULT:      -8.5      3.990     11.980
REMARK  7 active torsions:
REMARK  status: ('A' for Active; 'I' for Inactive)
REMARK    1  A    between atoms: C_8  and  S_26 
REMARK    2  A    between atoms: C_9  and  C_11 
REMARK    3  A    between atoms: C_11  and  N_12 
REMARK    4  A    between atoms: N_12  and  C_13 
REMARK    5  A    between atoms: C_13  and  C_14 
REMARK    6  A    between atoms: C_14  and  C_15 
REMARK    7  A    between atoms: N_18  and  C_21 
ROOT
HETATM    1  N           1     173.463 185.904 289.514  0.00  0.00     0.087 N 
HETATM    2  H           1     174.058 185.818 290.337  0.00  0.00     0.316 HD
ENDROOT
BRANCH   1   3
HETATM    3  C           1     172.761 187.159 289.560  0.00  0.00     0.311 C 
BRANCH   3   4
HETATM    4  C           1     171.513 187.005 290.371  0.00  0.00     0.006 A 
HETATM    5  C           1     170.294 186.764 289.765  0.00  0.00     0.101 A 
HETATM    6  N           1     169.133 186.616 290.438  0.00  0.00    -0.241 NA
HETATM    7  C           1     169.164 186.710 291.780  0.00  0.00     0.068 A 
HETATM    8  C           1     167.989 186.562 292.504  0.00  0.00     0.032 A 
HETATM    9  C           1     170.358 186.954 292.491  0.00  0.00    -0.007 A 
HETATM   10  C           1     167.969 186.651 293.899  0.00  0.00     0.002 A 
HETATM   11  C           1     169.148 186.893 294.596  0.00  0.00     0.001 A 
HETATM   12  C           1     170.342 187.043 293.895  0.00  0.00     0.014 A 
HETATM   13  C           1     171.543 187.102 291.757  0.00  0.00     0.025 A 
BRANCH   5  14
HETATM   14  S           1     170.254 186.638 287.954  0.00  0.00    -0.114 SA
HETATM   15  C           1     170.055 184.834 287.958  0.00  0.00     0.097 C 
ENDBRANCH   5  14
ENDBRANCH   3   4
ENDBRANCH   1   3
BRANCH   1  16
HETATM   16  C           1     174.277 185.901 288.329  0.00  0.00     0.270 C 
BRANCH  16  17
HETATM   17  C           1     173.679 184.947 287.305  0.00  0.00     0.034 C 
BRANCH  17  18
HETATM   18  C           1     173.838 185.534 285.908  0.00  0.00    -0.010 C 
HETATM   19  C           1     174.965 184.806 285.184  0.00  0.00     0.035 C 
HETATM   20  C           1     175.039 185.221 283.716  0.00  0.00     0.273 C 
HETATM   21  N           1     173.759 185.018 283.037  0.00  0.00     0.093 N 
HETATM   22  C           1     172.686 185.775 283.680  0.00  0.00     0.273 C 
HETATM   23  C           1     172.525 185.380 285.148  0.00  0.00     0.035 C 
BRANCH  21  24
HETATM   24  C           1     173.928 185.541 281.708  0.00  0.00     0.223 C 
HETATM   25  C           1     172.711 186.349 281.283  0.00  0.00     0.036 C 
HETATM   26  C           1     173.238 187.397 280.303  0.00  0.00     0.002 C 
HETATM   27  C           1     174.762 187.343 280.396  0.00  0.00     0.002 C 
HETATM   28  C           1     175.057 186.557 281.662  0.00  0.00     0.036 C 
ENDBRANCH  21  24
ENDBRANCH  17  18
ENDBRANCH  16  17
ENDBRANCH   1  16
TORSDOF 7
ENDMDL
MODEL 3
REMARK VINA RESULT:      -8.4      3.292     11.232
REMARK  7 active torsions:
REMARK  status: ('A' for Active; 'I' for Inactive)
REMARK    1  A    between atoms: C_8  and  S_26 
REMARK    2  A    between atoms: C_9  and  C_11 
REMARK    3  A    between atoms: C_11  and  N_12 
REMARK    4  A    between atoms: N_12  and  C_13 
REMARK    5  A    between atoms: C_13  and  C_14 
REMARK    6  A    between atoms: C_14  and  C_15 
REMARK    7  A    between atoms: N_18  and  C_21 
ROOT
HETATM    1  N           1     174.026 186.358 287.708  0.00  0.00     0.087 N 
HETATM    2  H           1     174.943 186.679 287.399  0.00  0.00     0.316 HD
ENDROOT
BRANCH   1   3
HETATM    3  C           1     173.074 187.428 287.577  0.00  0.00     0.311 C 
BRANCH   3   4
HETATM    4  C           1     172.152 187.424 288.756  0.00  0.00     0.006 A 
HETATM    5  C           1     170.817 187.754 288.617  0.00  0.00     0.101 A 
HETATM    6  N           1     169.933 187.770 289.638  0.00  0.00    -0.241 NA
HETATM    7  C           1     170.380 187.446 290.866  0.00  0.00     0.068 A 
HETATM    8  C           1     169.500 187.452 291.939  0.00  0.00     0.032 A 
HETATM    9  C           1     171.725 187.094 291.110  0.00  0.00    -0.007 A 
HETATM   10  C           1     169.914 187.122 293.233  0.00  0.00     0.002 A 
HETATM   11  C           1     171.241 186.777 293.469  0.00  0.00     0.001 A 
HETATM   12  C           1     172.146 186.761 292.410  0.00  0.00     0.014 A 
HETATM   13  C           1     172.611 187.089 290.024  0.00  0.00     0.025 A 
BRANCH   5  14
HETATM   14  S           1     170.216 188.192 286.961  0.00  0.00    -0.114 SA
HETATM   15  C           1     168.915 189.293 287.587  0.00  0.00     0.097 C 
ENDBRANCH   5  14
ENDBRANCH   3   4
ENDBRANCH   1   3
BRANCH   1  16
HETATM   16  C           1     173.588 185.277 286.867  0.00  0.00     0.270 C 
BRANCH  16  17
HETATM   17  C           1     174.757 184.779 286.029  0.00  0.00     0.034 C 
BRANCH  17  18
HETATM   18  C           1     174.459 185.007 284.553  0.00  0.00    -0.010 C 
HETATM   19  C           1     173.077 185.637 284.412  0.00  0.00     0.035 C 
HETATM   20  C           1     172.807 186.065 282.972  0.00  0.00     0.273 C 
HETATM   21  N           1     173.848 186.965 282.476  0.00  0.00     0.093 N 
HETATM   22  C           1     175.169 186.339 282.536  0.00  0.00     0.273 C 
HETATM   23  C           1     175.527 185.922 283.961  0.00  0.00     0.035 C 
BRANCH  21  24
HETATM   24  C           1     173.540 187.205 281.092  0.00  0.00     0.223 C 
HETATM   25  C           1     174.811 187.379 280.273  0.00  0.00     0.036 C 
HETATM   26  C           1     174.459 186.895 278.867  0.00  0.00     0.002 C 
HETATM   27  C           1     173.098 186.211 278.975  0.00  0.00     0.002 C 
HETATM   28  C           1     172.881 185.990 280.463  0.00  0.00     0.036 C 
ENDBRANCH  21  24
ENDBRANCH  17  18
ENDBRANCH  16  17
ENDBRANCH   1  16
TORSDOF 7
ENDMDL
MODEL 4
REMARK VINA RESULT:      -8.2      2.300      4.313
REMARK  7 active torsions:
REMARK  status: ('A' for Active; 'I' for Inactive)
REMARK    1  A    between atoms: C_8  and  S_26 
REMARK    2  A    between atoms: C_9  and  C_11 
REMARK    3  A    between atoms: C_11  and  N_12 
REMARK    4  A    between atoms: N_12  and  C_13 
REMARK    5  A    between atoms: C_13  and  C_14 
REMARK    6  A    between atoms: C_14  and  C_15 
REMARK    7  A    between atoms: N_18  and  C_21 
ROOT
HETATM    1  N           1     173.571 185.345 276.965  0.00  0.00     0.087 N 
HETATM    2  H           1     172.756 185.101 276.404  0.00  0.00     0.316 HD
ENDROOT
BRANCH   1   3
HETATM    3  C           1     174.275 186.433 276.342  0.00  0.00     0.311 C 
BRANCH   3   4
HETATM    4  C           1     174.795 185.995 275.009  0.00  0.00     0.006 A 
HETATM    5  C           1     176.101 186.251 274.634  0.00  0.00     0.101 A 
HETATM    6  N           1     176.631 185.883 273.448  0.00  0.00    -0.241 NA
HETATM    7  C           1     175.840 185.228 272.578  0.00  0.00     0.068 A 
HETATM    8  C           1     176.352 184.834 271.349  0.00  0.00     0.032 A 
HETATM    9  C           1     174.493 184.920 272.868  0.00  0.00    -0.007 A 
HETATM   10  C           1     175.572 184.152 270.412  0.00  0.00     0.002 A 
HETATM   11  C           1     174.245 183.850 270.701  0.00  0.00     0.001 A 
HETATM   12  C           1     173.706 184.232 271.928  0.00  0.00     0.014 A 
HETATM   13  C           1     173.980 185.318 274.109  0.00  0.00     0.025 A 
BRANCH   5  14
HETATM   14  S           1     177.166 187.135 275.808  0.00  0.00    -0.114 SA
HETATM   15  C           1     177.921 185.618 276.459  0.00  0.00     0.097 C 
ENDBRANCH   5  14
ENDBRANCH   3   4
ENDBRANCH   1   3
BRANCH   1  16
HETATM   16  C           1     173.143 185.789 278.265  0.00  0.00     0.270 C 
BRANCH  16  17
HETATM   17  C           1     174.099 186.857 278.777  0.00  0.00     0.034 C 
BRANCH  17  18
HETATM   18  C           1     173.924 187.017 280.282  0.00  0.00    -0.010 C 
HETATM   19  C           1     172.993 185.924 280.797  0.00  0.00     0.035 C 
HETATM   20  C           1     172.937 185.918 282.323  0.00  0.00     0.273 C 
HETATM   21  N           1     174.272 185.789 282.907  0.00  0.00     0.093 N 
HETATM   22  C           1     175.151 186.878 282.478  0.00  0.00     0.273 C 
HETATM   23  C           1     175.289 186.919 280.957  0.00  0.00     0.035 C 
BRANCH  21  24
HETATM   24  C           1     174.096 185.904 284.330  0.00  0.00     0.223 C 
HETATM   25  C           1     172.638 185.701 284.716  0.00  0.00     0.036 C 
HETATM   26  C           1     172.668 185.120 286.129  0.00  0.00     0.002 C 
HETATM   27  C           1     174.122 184.753 286.413  0.00  0.00     0.002 C 
HETATM   28  C           1     174.812 184.779 285.058  0.00  0.00     0.036 C 
ENDBRANCH  21  24
ENDBRANCH  17  18
ENDBRANCH  16  17
ENDBRANCH   1  16
TORSDOF 7
ENDMDL
MODEL 5
REMARK VINA RESULT:      -8.1      3.373      4.357
REMARK  7 active torsions:
REMARK  status: ('A' for Active; 'I' for Inactive)
REMARK    1  A    between atoms: C_8  and  S_26 
REMARK    2  A    between atoms: C_9  and  C_11 
REMARK    3  A    between atoms: C_11  and  N_12 
REMARK    4  A    between atoms: N_12  and  C_13 
REMARK    5  A    between atoms: C_13  and  C_14 
REMARK    6  A    between atoms: C_14  and  C_15 
REMARK    7  A    between atoms: N_18  and  C_21 
ROOT
HETATM    1  N           1     175.270 186.408 283.011  0.00  0.00     0.087 N 
HETATM    2  H           1     175.009 185.701 282.325  0.00  0.00     0.316 HD
ENDROOT
BRANCH   1   3
HETATM    3  C           1     174.185 187.337 283.180  0.00  0.00     0.311 C 
BRANCH   3   4
HETATM    4  C           1     173.358 187.372 281.934  0.00  0.00     0.006 A 
HETATM    5  C           1     172.555 188.459 281.641  0.00  0.00     0.101 A 
HETATM    6  N           1     171.785 188.553 280.536  0.00  0.00    -0.241 NA
HETATM    7  C           1     171.799 187.525 279.667  0.00  0.00     0.068 A 
HETATM    8  C           1     171.020 187.588 278.520  0.00  0.00     0.032 A 
HETATM    9  C           1     172.585 186.372 279.876  0.00  0.00    -0.007 A 
HETATM   10  C           1     171.000 186.548 277.586  0.00  0.00     0.002 A 
HETATM   11  C           1     171.775 185.412 277.797  0.00  0.00     0.001 A 
HETATM   12  C           1     172.568 185.323 278.939  0.00  0.00     0.014 A 
HETATM   13  C           1     173.370 186.312 281.035  0.00  0.00     0.025 A 
BRANCH   5  14
HETATM   14  S           1     172.537 189.844 282.815  0.00  0.00    -0.114 SA
HETATM   15  C           1     172.433 191.108 281.516  0.00  0.00     0.097 C 
ENDBRANCH   5  14
ENDBRANCH   3   4
ENDBRANCH   1   3
BRANCH   1  16
HETATM   16  C           1     175.509 185.779 284.282  0.00  0.00     0.270 C 
BRANCH  16  17
HETATM   17  C           1     174.447 184.716 284.530  0.00  0.00     0.034 C 
BRANCH  17  18
HETATM   18  C           1     174.059 184.719 286.003  0.00  0.00    -0.010 C 
HETATM   19  C           1     174.970 185.681 286.759  0.00  0.00     0.035 C 
HETATM   20  C           1     174.501 185.869 288.200  0.00  0.00     0.273 C 
HETATM   21  N           1     173.107 186.309 288.257  0.00  0.00     0.093 N 
HETATM   22  C           1     172.217 185.352 287.600  0.00  0.00     0.273 C 
HETATM   23  C           1     172.601 185.145 286.136  0.00  0.00     0.035 C 
BRANCH  21  24
HETATM   24  C           1     172.758 186.345 289.652  0.00  0.00     0.223 C 
HETATM   25  C           1     171.372 185.762 289.881  0.00  0.00     0.036 C 
HETATM   26  C           1     171.403 185.180 291.294  0.00  0.00     0.002 C 
HETATM   27  C           1     172.865 185.198 291.735  0.00  0.00     0.002 C 
HETATM   28  C           1     173.662 185.431 290.461  0.00  0.00     0.036 C 
ENDBRANCH  21  24
ENDBRANCH  17  18
ENDBRANCH  16  17
ENDBRANCH   1  16
TORSDOF 7
ENDMDL
MODEL 6
REMARK VINA RESULT:      -7.8      2.135     10.468
REMARK  7 active torsions:
REMARK  status: ('A' for Active; 'I' for Inactive)
REMARK    1  A    between atoms: C_8  and  S_26 
REMARK    2  A    between atoms: C_9  and  C_11 
REMARK    3  A    between atoms: C_11  and  N_12 
REMARK    4  A    between atoms: N_12  and  C_13 
REMARK    5  A    between atoms: C_13  and  C_14 
REMARK    6  A    between atoms: C_14  and  C_15 
REMARK    7  A    between atoms: N_18  and  C_21 
ROOT
HETATM    1  N           1     173.149 185.645 280.734  0.00  0.00     0.087 N 
HETATM    2  H           1     173.510 184.715 280.524  0.00  0.00     0.316 HD
ENDROOT
BRANCH   1   3
HETATM    3  C           1     174.084 186.344 281.573  0.00  0.00     0.311 C 
BRANCH   3   4
HETATM    4  C           1     173.458 186.608 282.907  0.00  0.00     0.006 A 
HETATM    5  C           1     173.296 187.899 283.375  0.00  0.00     0.101 A 
HETATM    6  N           1     172.740 188.206 284.567  0.00  0.00    -0.241 NA
HETATM    7  C           1     172.320 187.192 285.347  0.00  0.00     0.068 A 
HETATM    8  C           1     171.743 187.470 286.579  0.00  0.00     0.032 A 
HETATM    9  C           1     172.441 185.841 284.958  0.00  0.00    -0.007 A 
HETATM   10  C           1     171.290 186.454 287.425  0.00  0.00     0.002 A 
HETATM   11  C           1     171.413 185.124 287.038  0.00  0.00     0.001 A 
HETATM   12  C           1     171.986 184.816 285.807  0.00  0.00     0.014 A 
HETATM   13  C           1     173.024 185.564 283.714  0.00  0.00     0.025 A 
BRANCH   5  14
HETATM   14  S           1     173.864 189.264 282.322  0.00  0.00    -0.114 SA
HETATM   15  C           1     172.240 189.513 281.551  0.00  0.00     0.097 C 
ENDBRANCH   5  14
ENDBRANCH   3   4
ENDBRANCH   1   3
BRANCH   1  16
HETATM   16  C           1     173.013 186.394 279.513  0.00  0.00     0.270 C 
BRANCH  16  17
HETATM   17  C           1     174.380 186.895 279.070  0.00  0.00     0.034 C 
BRANCH  17  18
HETATM   18  C           1     174.496 186.784 277.555  0.00  0.00    -0.010 C 
HETATM   19  C           1     175.933 186.431 277.187  0.00  0.00     0.035 C 
HETATM   20  C           1     176.063 186.116 275.698  0.00  0.00     0.273 C 
HETATM   21  N           1     175.140 185.056 275.292  0.00  0.00     0.093 N 
HETATM   22  C           1     173.750 185.420 275.572  0.00  0.00     0.273 C 
HETATM   23  C           1     173.536 185.708 277.057  0.00  0.00     0.035 C 
BRANCH  21  24
HETATM   24  C           1     175.281 184.931 273.866  0.00  0.00     0.223 C 
HETATM   25  C           1     174.012 185.375 273.153  0.00  0.00     0.036 C 
HETATM   26  C           1     174.472 185.899 271.793  0.00  0.00     0.002 C 
HETATM   27  C           1     175.994 185.995 271.861  0.00  0.00     0.002 C 
HETATM   28  C           1     176.334 185.889 273.338  0.00  0.00     0.036 C 
ENDBRANCH  21  24
ENDBRANCH  17  18
ENDBRANCH  16  17
ENDBRANCH   1  16
TORSDOF 7
ENDMDL
MODEL 7
REMARK VINA RESULT:      -7.8      3.320      6.448
REMARK  7 active torsions:
REMARK  status: ('A' for Active; 'I' for Inactive)
REMARK    1  A    between atoms: C_8  and  S_26 
REMARK    2  A    between atoms: C_9  and  C_11 
REMARK    3  A    between atoms: C_11  and  N_12 
REMARK    4  A    between atoms: N_12  and  C_13 
REMARK    5  A    between atoms: C_13  and  C_14 
REMARK    6  A    between atoms: C_14  and  C_15 
REMARK    7  A    between atoms: N_18  and  C_21 
ROOT
HETATM    1  N           1     173.906 186.224 284.690  0.00  0.00     0.087 N 
HETATM    2  H           1     174.828 185.837 284.495  0.00  0.00     0.316 HD
ENDROOT
BRANCH   1   3
HETATM    3  C           1     173.114 186.204 283.490  0.00  0.00     0.311 C 
BRANCH   3   4
HETATM    4  C           1     172.935 187.602 282.985  0.00  0.00     0.006 A 
HETATM    5  C           1     173.748 188.110 281.989  0.00  0.00     0.101 A 
HETATM    6  N           1     173.640 189.360 281.490  0.00  0.00    -0.241 NA
HETATM    7  C           1     172.682 190.160 281.994  0.00  0.00     0.068 A 
HETATM    8  C           1     172.542 191.452 281.505  0.00  0.00     0.032 A 
HETATM    9  C           1     171.802 189.735 283.013  0.00  0.00    -0.007 A 
HETATM   10  C           1     171.563 192.322 281.995  0.00  0.00     0.002 A 
HETATM   11  C           1     170.699 191.898 282.999  0.00  0.00     0.001 A 
HETATM   12  C           1     170.816 190.607 283.508  0.00  0.00     0.014 A 
HETATM   13  C           1     171.947 188.430 283.504  0.00  0.00     0.025 A 
BRANCH   5  14
HETATM   14  S           1     175.039 187.029 281.311  0.00  0.00    -0.114 SA
HETATM   15  C           1     174.189 186.799 279.723  0.00  0.00     0.097 C 
ENDBRANCH   5  14
ENDBRANCH   3   4
ENDBRANCH   1   3
BRANCH   1  16
HETATM   16  C           1     173.238 185.408 285.668  0.00  0.00     0.270 C 
BRANCH  16  17
HETATM   17  C           1     174.053 185.387 286.953  0.00  0.00     0.034 C 
BRANCH  17  18
HETATM   18  C           1     173.141 185.675 288.139  0.00  0.00    -0.010 C 
HETATM   19  C           1     173.991 185.879 289.388  0.00  0.00     0.035 C 
HETATM   20  C           1     173.144 186.362 290.563  0.00  0.00     0.273 C 
HETATM   21  N           1     172.403 187.578 290.225  0.00  0.00     0.093 N 
HETATM   22  C           1     171.526 187.368 289.073  0.00  0.00     0.273 C 
HETATM   23  C           1     172.315 186.923 287.843  0.00  0.00     0.035 C 
BRANCH  21  24
HETATM   24  C           1     171.571 187.865 291.362  0.00  0.00     0.223 C 
HETATM   25  C           1     170.114 187.543 291.066  0.00  0.00     0.036 C 
HETATM   26  C           1     169.497 187.170 292.413  0.00  0.00     0.002 C 
HETATM   27  C           1     170.659 187.023 293.393  0.00  0.00     0.002 C 
HETATM   28  C           1     171.904 186.946 292.525  0.00  0.00     0.036 C 
ENDBRANCH  21  24
ENDBRANCH  17  18
ENDBRANCH  16  17
ENDBRANCH   1  16
TORSDOF 7
ENDMDL
MODEL 8
REMARK VINA RESULT:      -7.7      8.027     14.287
REMARK  7 active torsions:
REMARK  status: ('A' for Active; 'I' for Inactive)
REMARK    1  A    between atoms: C_8  and  S_26 
REMARK    2  A    between atoms: C_9  and  C_11 
REMARK    3  A    between atoms: C_11  and  N_12 
REMARK    4  A    between atoms: N_12  and  C_13 
REMARK    5  A    between atoms: C_13  and  C_14 
REMARK    6  A    between atoms: C_14  and  C_15 
REMARK    7  A    between atoms: N_18  and  C_21 
ROOT
HETATM    1  N           1     173.216 183.678 271.855  0.00  0.00     0.087 N 
HETATM    2  H           1     173.728 183.245 272.623  0.00  0.00     0.316 HD
ENDROOT
BRANCH   1   3
HETATM    3  C           1     173.183 185.103 272.045  0.00  0.00     0.311 C 
BRANCH   3   4
HETATM    4  C           1     174.403 185.536 272.795  0.00  0.00     0.006 A 
HETATM    5  C           1     175.226 186.533 272.304  0.00  0.00     0.101 A 
HETATM    6  N           1     176.340 186.969 272.931  0.00  0.00    -0.241 NA
HETATM    7  C           1     176.669 186.398 274.104  0.00  0.00     0.068 A 
HETATM    8  C           1     177.808 186.822 274.776  0.00  0.00     0.032 A 
HETATM    9  C           1     175.894 185.373 274.688  0.00  0.00    -0.007 A 
HETATM   10  C           1     178.193 186.261 275.997  0.00  0.00     0.002 A 
HETATM   11  C           1     177.427 185.251 276.569  0.00  0.00     0.001 A 
HETATM   12  C           1     176.278 184.807 275.917  0.00  0.00     0.014 A 
HETATM   13  C           1     174.746 184.948 274.007  0.00  0.00     0.025 A 
BRANCH   5  14
HETATM   14  S           1     174.780 187.302 270.721  0.00  0.00    -0.114 SA
HETATM   15  C           1     174.124 188.808 271.493  0.00  0.00     0.097 C 
ENDBRANCH   5  14
ENDBRANCH   3   4
ENDBRANCH   1   3
BRANCH   1  16
HETATM   16  C           1     173.896 183.417 270.616  0.00  0.00     0.270 C 
BRANCH  16  17
HETATM   17  C           1     175.259 182.804 270.904  0.00  0.00     0.034 C 
BRANCH  17  18
HETATM   18  C           1     176.098 182.806 269.632  0.00  0.00    -0.010 C 
HETATM   19  C           1     175.274 182.225 268.488  0.00  0.00     0.035 C 
HETATM   20  C           1     175.995 182.382 267.151  0.00  0.00     0.273 C 
HETATM   21  N           1     176.343 183.780 266.892  0.00  0.00     0.093 N 
HETATM   22  C           1     177.198 184.323 267.948  0.00  0.00     0.273 C 
HETATM   23  C           1     176.521 184.237 269.315  0.00  0.00     0.035 C 
BRANCH  21  24
HETATM   24  C           1     177.103 183.779 265.671  0.00  0.00     0.223 C 
HETATM   25  C           1     177.503 182.365 265.279  0.00  0.00     0.036 C 
HETATM   26  C           1     177.604 182.377 263.754  0.00  0.00     0.002 C 
HETATM   27  C           1     177.004 183.704 263.294  0.00  0.00     0.002 C 
HETATM   28  C           1     176.251 184.240 264.500  0.00  0.00     0.036 C 
ENDBRANCH  21  24
ENDBRANCH  17  18
ENDBRANCH  16  17
ENDBRANCH   1  16
TORSDOF 7
ENDMDL
MODEL 9
REMARK VINA RESULT:      -7.7      1.718      2.571
REMARK  7 active torsions:
REMARK  status: ('A' for Active; 'I' for Inactive)
REMARK    1  A    between atoms: C_8  and  S_26 
REMARK    2  A    between atoms: C_9  and  C_11 
REMARK    3  A    between atoms: C_11  and  N_12 
REMARK    4  A    between atoms: N_12  and  C_13 
REMARK    5  A    between atoms: C_13  and  C_14 
REMARK    6  A    between atoms: C_14  and  C_15 
REMARK    7  A    between atoms: N_18  and  C_21 
ROOT
HETATM    1  N           1     171.913 187.336 278.453  0.00  0.00     0.087 N 
HETATM    2  H           1     172.713 187.946 278.289  0.00  0.00     0.316 HD
ENDROOT
BRANCH   1   3
HETATM    3  C           1     172.012 186.177 277.607  0.00  0.00     0.311 C 
BRANCH   3   4
HETATM    4  C           1     173.198 186.317 276.705  0.00  0.00     0.006 A 
HETATM    5  C           1     173.062 186.810 275.420  0.00  0.00     0.101 A 
HETATM    6  N           1     174.089 186.961 274.556  0.00  0.00    -0.241 NA
HETATM    7  C           1     175.320 186.608 274.972  0.00  0.00     0.068 A 
HETATM    8  C           1     176.399 186.750 274.110  0.00  0.00     0.032 A 
HETATM    9  C           1     175.562 186.095 276.264  0.00  0.00    -0.007 A 
HETATM   10  C           1     177.697 186.398 274.493  0.00  0.00     0.002 A 
HETATM   11  C           1     177.931 185.892 275.767  0.00  0.00     0.001 A 
HETATM   12  C           1     176.866 185.741 276.653  0.00  0.00     0.014 A 
HETATM   13  C           1     174.470 185.953 277.130  0.00  0.00     0.025 A 
BRANCH   5  14
HETATM   14  S           1     171.401 187.285 274.862  0.00  0.00    -0.114 SA
HETATM   15  C           1     171.663 189.053 275.178  0.00  0.00     0.097 C 
ENDBRANCH   5  14
ENDBRANCH   3   4
ENDBRANCH   1   3
BRANCH   1  16
HETATM   16  C           1     171.928 186.883 279.818  0.00  0.00     0.270 C 
BRANCH  16  17
HETATM   17  C           1     172.389 188.016 280.724  0.00  0.00     0.034 C 
BRANCH  17  18
HETATM   18  C           1     173.064 187.435 281.960  0.00  0.00    -0.010 C 
HETATM   19  C           1     172.356 187.952 283.208  0.00  0.00     0.035 C 
HETATM   20  C           1     172.865 187.252 284.465  0.00  0.00     0.273 C 
HETATM   21  N           1     172.743 185.798 284.355  0.00  0.00     0.093 N 
HETATM   22  C           1     173.485 185.284 283.204  0.00  0.00     0.273 C 
HETATM   23  C           1     172.997 185.912 281.899  0.00  0.00     0.035 C 
BRANCH  21  24
HETATM   24  C           1     173.349 185.258 285.543  0.00  0.00     0.223 C 
HETATM   25  C           1     174.794 184.859 285.283  0.00  0.00     0.036 C 
HETATM   26  C           1     175.509 185.020 286.624  0.00  0.00     0.002 C 
HETATM   27  C           1     174.537 185.755 287.544  0.00  0.00     0.002 C 
HETATM   28  C           1     173.466 186.318 286.624  0.00  0.00     0.036 C 
ENDBRANCH  21  24
ENDBRANCH  17  18
ENDBRANCH  16  17
ENDBRANCH   1  16
TORSDOF 7
ENDMDL
