MODEL 1
REMARK VINA RESULT:      -7.5      0.000      0.000
REMARK  8 active torsions:
REMARK  status: ('A' for Active; 'I' for Inactive)
REMARK    1  A    between atoms: C_8  and  S_22 
REMARK    2  A    between atoms: C_9  and  C_11 
REMARK    3  A    between atoms: C_11  and  N_12 
REMARK    4  A    between atoms: N_12  and  C_13 
REMARK    5  A    between atoms: C_13  and  C_14 
REMARK    6  A    between atoms: C_14  and  N_15 
REMARK    7  A    between atoms: S_22  and  C_23 
REMARK    8  A    between atoms: C_23  and  C_24 
ROOT
HETATM    1  C           1     178.073 185.699 276.193  0.00  0.00     0.001 A 
HETATM    2  C           1     177.065 184.809 276.546  0.00  0.00     0.002 A 
HETATM    3  C           1     175.890 184.750 275.790  0.00  0.00     0.032 A 
HETATM    4  C           1     175.693 185.564 274.682  0.00  0.00     0.068 A 
HETATM    5  C           1     176.719 186.466 274.328  0.00  0.00    -0.007 A 
HETATM    6  C           1     177.902 186.528 275.086  0.00  0.00     0.014 A 
HETATM    7  N           1     174.544 185.471 273.987  0.00  0.00    -0.241 NA
HETATM    8  C           1     174.386 186.277 272.914  0.00  0.00     0.102 A 
HETATM    9  C           1     175.332 187.192 272.489  0.00  0.00     0.006 A 
HETATM   10  C           1     176.516 187.286 273.209  0.00  0.00     0.025 A 
ENDROOT
BRANCH   9  11
HETATM   11  C           1     175.087 188.053 271.290  0.00  0.00     0.311 C 
BRANCH  11  12
HETATM   12  N           1     175.899 189.237 271.375  0.00  0.00     0.089 N 
HETATM   13  H           1     175.658 189.755 272.219  0.00  0.00     0.316 HD
BRANCH  12  14
HETATM   14  C           1     175.616 190.044 270.219  0.00  0.00     0.300 C 
BRANCH  14  15
HETATM   15  C           1     175.673 191.517 270.602  0.00  0.00     0.302 C 
BRANCH  15  16
HETATM   16  N           1     174.530 191.848 271.408  0.00  0.00     0.093 N 
HETATM   17  C           1     174.732 193.222 271.899  0.00  0.00     0.302 C 
HETATM   18  C           1     173.475 193.815 272.571  0.00  0.00     0.302 C 
HETATM   19  N           1     172.287 193.776 271.699  0.00  0.00     0.087 N 
HETATM   20  C           1     171.155 194.120 272.518  0.00  0.00     0.310 C 
HETATM   21  C           1     172.083 192.402 271.208  0.00  0.00     0.302 C 
HETATM   22  C           1     173.341 191.810 270.537  0.00  0.00     0.302 C 
ENDBRANCH  15  16
ENDBRANCH  14  15
ENDBRANCH  12  14
ENDBRANCH  11  12
ENDBRANCH   9  11
BRANCH   8  23
HETATM   23  S           1     172.838 186.153 271.975  0.00  0.00    -0.105 SA
BRANCH  23  24
HETATM   24  C           1     173.007 184.369 271.687  0.00  0.00     0.119 C 
BRANCH  24  25
HETATM   25  C           1     174.213 184.112 270.840  0.00  0.00    -0.049 A 
HETATM   26  C           1     175.180 183.198 271.260  0.00  0.00     0.008 A 
HETATM   27  C           1     176.304 182.960 270.471  0.00  0.00     0.001 A 
HETATM   28  C           1     176.463 183.634 269.260  0.00  0.00     0.000 A 
HETATM   29  C           1     175.496 184.547 268.839  0.00  0.00     0.001 A 
HETATM   30  C           1     174.372 184.787 269.629  0.00  0.00     0.008 A 
ENDBRANCH  24  25
ENDBRANCH  23  24
ENDBRANCH   8  23
TORSDOF 8
ENDMDL
MODEL 2
REMARK VINA RESULT:      -7.2      7.971     11.345
REMARK  8 active torsions:
REMARK  status: ('A' for Active; 'I' for Inactive)
REMARK    1  A    between atoms: C_8  and  S_22 
REMARK    2  A    between atoms: C_9  and  C_11 
REMARK    3  A    between atoms: C_11  and  N_12 
REMARK    4  A    between atoms: N_12  and  C_13 
REMARK    5  A    between atoms: C_13  and  C_14 
REMARK    6  A    between atoms: C_14  and  N_15 
REMARK    7  A    between atoms: S_22  and  C_23 
REMARK    8  A    between atoms: C_23  and  C_24 
ROOT
HETATM    1  C           1     171.226 191.620 282.134  0.00  0.00     0.001 A 
HETATM    2  C           1     170.433 191.444 281.005  0.00  0.00     0.002 A 
HETATM    3  C           1     170.574 190.291 280.227  0.00  0.00     0.032 A 
HETATM    4  C           1     171.493 189.302 280.547  0.00  0.00     0.068 A 
HETATM    5  C           1     172.296 189.484 281.694  0.00  0.00    -0.007 A 
HETATM    6  C           1     172.157 190.643 282.479  0.00  0.00     0.014 A 
HETATM    7  N           1     171.592 188.210 279.766  0.00  0.00    -0.241 NA
HETATM    8  C           1     172.496 187.266 280.108  0.00  0.00     0.102 A 
HETATM    9  C           1     173.326 187.355 281.210  0.00  0.00     0.006 A 
HETATM   10  C           1     173.222 188.483 282.014  0.00  0.00     0.025 A 
ENDROOT
BRANCH   9  11
HETATM   11  C           1     174.306 186.268 281.527  0.00  0.00     0.311 C 
BRANCH  11  12
HETATM   12  N           1     175.476 186.840 282.137  0.00  0.00     0.089 N 
HETATM   13  H           1     176.292 186.638 281.561  0.00  0.00     0.316 HD
BRANCH  12  14
HETATM   14  C           1     175.638 186.227 283.428  0.00  0.00     0.300 C 
BRANCH  14  15
HETATM   15  C           1     174.727 185.012 283.532  0.00  0.00     0.302 C 
BRANCH  15  16
HETATM   16  N           1     174.223 184.902 284.874  0.00  0.00     0.093 N 
HETATM   17  C           1     175.284 185.388 285.773  0.00  0.00     0.302 C 
HETATM   18  C           1     174.804 185.571 287.229  0.00  0.00     0.302 C 
HETATM   19  N           1     173.627 186.451 287.339  0.00  0.00     0.087 N 
HETATM   20  C           1     173.144 186.337 288.689  0.00  0.00     0.310 C 
HETATM   21  C           1     172.566 185.965 286.440  0.00  0.00     0.302 C 
HETATM   22  C           1     173.046 185.782 284.985  0.00  0.00     0.302 C 
ENDBRANCH  15  16
ENDBRANCH  14  15
ENDBRANCH  12  14
ENDBRANCH  11  12
ENDBRANCH   9  11
BRANCH   8  23
HETATM   23  S           1     172.631 185.793 279.056  0.00  0.00    -0.105 SA
BRANCH  23  24
HETATM   24  C           1     172.913 186.748 277.538  0.00  0.00     0.119 C 
BRANCH  24  25
HETATM   25  C           1     174.183 186.294 276.890  0.00  0.00    -0.049 A 
HETATM   26  C           1     175.412 186.740 277.376  0.00  0.00     0.008 A 
HETATM   27  C           1     176.596 186.317 276.771  0.00  0.00     0.001 A 
HETATM   28  C           1     176.551 185.447 275.681  0.00  0.00     0.000 A 
HETATM   29  C           1     175.322 185.001 275.197  0.00  0.00     0.001 A 
HETATM   30  C           1     174.138 185.424 275.800  0.00  0.00     0.008 A 
ENDBRANCH  24  25
ENDBRANCH  23  24
ENDBRANCH   8  23
TORSDOF 8
ENDMDL
MODEL 3
REMARK VINA RESULT:      -7.2      1.684      4.945
REMARK  8 active torsions:
REMARK  status: ('A' for Active; 'I' for Inactive)
REMARK    1  A    between atoms: C_8  and  S_22 
REMARK    2  A    between atoms: C_9  and  C_11 
REMARK    3  A    between atoms: C_11  and  N_12 
REMARK    4  A    between atoms: N_12  and  C_13 
REMARK    5  A    between atoms: C_13  and  C_14 
REMARK    6  A    between atoms: C_14  and  N_15 
REMARK    7  A    between atoms: S_22  and  C_23 
REMARK    8  A    between atoms: C_23  and  C_24 
ROOT
HETATM    1  C           1     175.771 181.533 267.938  0.00  0.00     0.001 A 
HETATM    2  C           1     176.236 181.280 269.224  0.00  0.00     0.002 A 
HETATM    3  C           1     176.207 182.292 270.187  0.00  0.00     0.032 A 
HETATM    4  C           1     175.722 183.561 269.899  0.00  0.00     0.068 A 
HETATM    5  C           1     175.252 183.813 268.593  0.00  0.00    -0.007 A 
HETATM    6  C           1     175.280 182.797 267.621  0.00  0.00     0.014 A 
HETATM    7  N           1     175.716 184.502 270.861  0.00  0.00    -0.241 NA
HETATM    8  C           1     175.237 185.726 270.547  0.00  0.00     0.102 A 
HETATM    9  C           1     174.755 186.069 269.297  0.00  0.00     0.006 A 
HETATM   10  C           1     174.764 185.095 268.306  0.00  0.00     0.025 A 
ENDROOT
BRANCH   9  11
HETATM   11  C           1     174.240 187.447 269.021  0.00  0.00     0.311 C 
BRANCH  11  12
HETATM   12  N           1     174.791 187.927 267.782  0.00  0.00     0.089 N 
HETATM   13  H           1     175.706 187.503 267.631  0.00  0.00     0.316 HD
BRANCH  12  14
HETATM   14  C           1     174.935 189.353 267.892  0.00  0.00     0.300 C 
BRANCH  14  15
HETATM   15  C           1     175.276 189.720 269.330  0.00  0.00     0.302 C 
BRANCH  15  16
HETATM   16  N           1     174.727 191.013 269.639  0.00  0.00     0.093 N 
HETATM   17  C           1     173.303 190.810 269.959  0.00  0.00     0.302 C 
HETATM   18  C           1     172.635 192.066 270.558  0.00  0.00     0.302 C 
HETATM   19  N           1     173.336 192.576 271.749  0.00  0.00     0.087 N 
HETATM   20  C           1     172.768 193.863 272.051  0.00  0.00     0.310 C 
HETATM   21  C           1     174.760 192.779 271.430  0.00  0.00     0.302 C 
HETATM   22  C           1     175.428 191.524 270.831  0.00  0.00     0.302 C 
ENDBRANCH  15  16
ENDBRANCH  14  15
ENDBRANCH  12  14
ENDBRANCH  11  12
ENDBRANCH   9  11
BRANCH   8  23
HETATM   23  S           1     175.227 186.997 271.842  0.00  0.00    -0.105 SA
BRANCH  23  24
HETATM   24  C           1     174.791 185.829 273.162  0.00  0.00     0.119 C 
BRANCH  24  25
HETATM   25  C           1     175.889 185.789 274.177  0.00  0.00    -0.049 A 
HETATM   26  C           1     177.107 186.417 273.914  0.00  0.00     0.008 A 
HETATM   27  C           1     178.130 186.378 274.860  0.00  0.00     0.001 A 
HETATM   28  C           1     177.937 185.713 276.071  0.00  0.00     0.000 A 
HETATM   29  C           1     176.719 185.086 276.335  0.00  0.00     0.001 A 
HETATM   30  C           1     175.696 185.123 275.388  0.00  0.00     0.008 A 
ENDBRANCH  24  25
ENDBRANCH  23  24
ENDBRANCH   8  23
TORSDOF 8
ENDMDL
MODEL 4
REMARK VINA RESULT:      -7.1      7.838     11.064
REMARK  8 active torsions:
REMARK  status: ('A' for Active; 'I' for Inactive)
REMARK    1  A    between atoms: C_8  and  S_22 
REMARK    2  A    between atoms: C_9  and  C_11 
REMARK    3  A    between atoms: C_11  and  N_12 
REMARK    4  A    between atoms: N_12  and  C_13 
REMARK    5  A    between atoms: C_13  and  C_14 
REMARK    6  A    between atoms: C_14  and  N_15 
REMARK    7  A    between atoms: S_22  and  C_23 
REMARK    8  A    between atoms: C_23  and  C_24 
ROOT
HETATM    1  C           1     171.732 185.253 287.161  0.00  0.00     0.001 A 
HETATM    2  C           1     171.856 186.584 287.546  0.00  0.00     0.002 A 
HETATM    3  C           1     172.306 187.536 286.627  0.00  0.00     0.032 A 
HETATM    4  C           1     172.638 187.193 285.323  0.00  0.00     0.068 A 
HETATM    5  C           1     172.510 185.842 284.937  0.00  0.00    -0.007 A 
HETATM    6  C           1     172.057 184.881 285.859  0.00  0.00     0.014 A 
HETATM    7  N           1     173.067 188.147 284.475  0.00  0.00    -0.241 NA
HETATM    8  C           1     173.380 187.778 283.214  0.00  0.00     0.102 A 
HETATM    9  C           1     173.288 186.482 282.742  0.00  0.00     0.006 A 
HETATM   10  C           1     172.845 185.500 283.620  0.00  0.00     0.025 A 
ENDROOT
BRANCH   9  11
HETATM   11  C           1     173.654 186.148 281.330  0.00  0.00     0.311 C 
BRANCH  11  12
HETATM   12  N           1     172.460 185.857 280.581  0.00  0.00     0.089 N 
HETATM   13  H           1     172.080 184.960 280.883  0.00  0.00     0.316 HD
BRANCH  12  14
HETATM   14  C           1     172.824 185.780 279.192  0.00  0.00     0.300 C 
BRANCH  14  15
HETATM   15  C           1     173.997 186.713 278.922  0.00  0.00     0.302 C 
BRANCH  15  16
HETATM   16  N           1     174.229 186.795 277.505  0.00  0.00     0.093 N 
HETATM   17  C           1     175.688 186.761 277.306  0.00  0.00     0.302 C 
HETATM   18  C           1     176.091 186.585 275.826  0.00  0.00     0.302 C 
HETATM   19  N           1     175.483 185.395 275.203  0.00  0.00     0.087 N 
HETATM   20  C           1     175.734 185.488 273.790  0.00  0.00     0.310 C 
HETATM   21  C           1     174.024 185.429 275.402  0.00  0.00     0.302 C 
HETATM   22  C           1     173.621 185.606 276.882  0.00  0.00     0.302 C 
ENDBRANCH  15  16
ENDBRANCH  14  15
ENDBRANCH  12  14
ENDBRANCH  11  12
ENDBRANCH   9  11
BRANCH   8  23
HETATM   23  S           1     173.959 189.063 282.069  0.00  0.00    -0.105 SA
BRANCH  23  24
HETATM   24  C           1     172.573 190.180 282.422  0.00  0.00     0.119 C 
BRANCH  24  25
HETATM   25  C           1     171.761 190.376 281.180  0.00  0.00    -0.049 A 
HETATM   26  C           1     171.463 191.664 280.736  0.00  0.00     0.008 A 
HETATM   27  C           1     170.706 191.846 279.580  0.00  0.00     0.001 A 
HETATM   28  C           1     170.245 190.740 278.866  0.00  0.00     0.000 A 
HETATM   29  C           1     170.544 189.451 279.309  0.00  0.00     0.001 A 
HETATM   30  C           1     171.301 189.269 280.466  0.00  0.00     0.008 A 
ENDBRANCH  24  25
ENDBRANCH  23  24
ENDBRANCH   8  23
TORSDOF 8
ENDMDL
MODEL 5
REMARK VINA RESULT:      -7.1      3.771      8.018
REMARK  8 active torsions:
REMARK  status: ('A' for Active; 'I' for Inactive)
REMARK    1  A    between atoms: C_8  and  S_22 
REMARK    2  A    between atoms: C_9  and  C_11 
REMARK    3  A    between atoms: C_11  and  N_12 
REMARK    4  A    between atoms: N_12  and  C_13 
REMARK    5  A    between atoms: C_13  and  C_14 
REMARK    6  A    between atoms: C_14  and  N_15 
REMARK    7  A    between atoms: S_22  and  C_23 
REMARK    8  A    between atoms: C_23  and  C_24 
ROOT
HETATM    1  C           1     174.268 190.185 268.150  0.00  0.00     0.001 A 
HETATM    2  C           1     174.165 190.390 269.521  0.00  0.00     0.002 A 
HETATM    3  C           1     174.401 189.333 270.405  0.00  0.00     0.032 A 
HETATM    4  C           1     174.741 188.065 269.952  0.00  0.00     0.068 A 
HETATM    5  C           1     174.845 187.861 268.559  0.00  0.00    -0.007 A 
HETATM    6  C           1     174.608 188.922 267.668  0.00  0.00     0.014 A 
HETATM    7  N           1     174.958 187.079 270.842  0.00  0.00    -0.241 NA
HETATM    8  C           1     175.287 185.858 270.367  0.00  0.00     0.102 A 
HETATM    9  C           1     175.413 185.560 269.023  0.00  0.00     0.006 A 
HETATM   10  C           1     175.188 186.580 268.106  0.00  0.00     0.025 A 
ENDROOT
BRANCH   9  11
HETATM   11  C           1     175.782 184.182 268.570  0.00  0.00     0.311 C 
BRANCH  11  12
HETATM   12  N           1     177.145 184.176 268.112  0.00  0.00     0.089 N 
HETATM   13  H           1     177.561 185.094 268.271  0.00  0.00     0.316 HD
BRANCH  12  14
HETATM   14  C           1     177.131 183.894 266.702  0.00  0.00     0.300 C 
BRANCH  14  15
HETATM   15  C           1     176.103 182.809 266.411  0.00  0.00     0.302 C 
BRANCH  15  16
HETATM   16  N           1     175.503 183.046 265.126  0.00  0.00     0.093 N 
HETATM   17  C           1     174.085 183.365 265.366  0.00  0.00     0.302 C 
HETATM   18  C           1     173.364 183.893 264.107  0.00  0.00     0.302 C 
HETATM   19  N           1     174.035 185.062 263.510  0.00  0.00     0.087 N 
HETATM   20  C           1     173.415 185.292 262.232  0.00  0.00     0.310 C 
HETATM   21  C           1     175.453 184.743 263.269  0.00  0.00     0.302 C 
HETATM   22  C           1     176.174 184.215 264.528  0.00  0.00     0.302 C 
ENDBRANCH  15  16
ENDBRANCH  14  15
ENDBRANCH  12  14
ENDBRANCH  11  12
ENDBRANCH   9  11
BRANCH   8  23
HETATM   23  S           1     175.580 184.527 271.566  0.00  0.00    -0.105 SA
BRANCH  23  24
HETATM   24  C           1     174.874 185.453 272.958  0.00  0.00     0.119 C 
BRANCH  24  25
HETATM   25  C           1     175.890 185.568 274.050  0.00  0.00    -0.049 A 
HETATM   26  C           1     175.639 185.003 275.300  0.00  0.00     0.008 A 
HETATM   27  C           1     176.587 185.111 276.317  0.00  0.00     0.001 A 
HETATM   28  C           1     177.787 185.784 276.085  0.00  0.00     0.000 A 
HETATM   29  C           1     178.038 186.348 274.834  0.00  0.00     0.001 A 
HETATM   30  C           1     177.090 186.241 273.817  0.00  0.00     0.008 A 
ENDBRANCH  24  25
ENDBRANCH  23  24
ENDBRANCH   8  23
TORSDOF 8
ENDMDL
MODEL 6
REMARK VINA RESULT:      -7.1      2.242      7.052
REMARK  8 active torsions:
REMARK  status: ('A' for Active; 'I' for Inactive)
REMARK    1  A    between atoms: C_8  and  S_22 
REMARK    2  A    between atoms: C_9  and  C_11 
REMARK    3  A    between atoms: C_11  and  N_12 
REMARK    4  A    between atoms: N_12  and  C_13 
REMARK    5  A    between atoms: C_13  and  C_14 
REMARK    6  A    between atoms: C_14  and  N_15 
REMARK    7  A    between atoms: S_22  and  C_23 
REMARK    8  A    between atoms: C_23  and  C_24 
ROOT
HETATM    1  C           1     177.406 185.518 276.743  0.00  0.00     0.001 A 
HETATM    2  C           1     177.984 186.703 276.304  0.00  0.00     0.002 A 
HETATM    3  C           1     177.556 187.286 275.107  0.00  0.00     0.032 A 
HETATM    4  C           1     176.558 186.713 274.331  0.00  0.00     0.068 A 
HETATM    5  C           1     175.974 185.509 274.782  0.00  0.00    -0.007 A 
HETATM    6  C           1     176.402 184.920 275.984  0.00  0.00     0.014 A 
HETATM    7  N           1     176.181 187.312 273.187  0.00  0.00    -0.241 NA
HETATM    8  C           1     175.206 186.727 272.457  0.00  0.00     0.102 A 
HETATM    9  C           1     174.574 185.550 272.814  0.00  0.00     0.006 A 
HETATM   10  C           1     174.966 184.934 273.996  0.00  0.00     0.025 A 
ENDROOT
BRANCH   9  11
HETATM   11  C           1     173.501 184.960 271.954  0.00  0.00     0.311 C 
BRANCH  11  12
HETATM   12  N           1     173.648 183.529 271.917  0.00  0.00     0.089 N 
HETATM   13  H           1     174.353 183.243 272.596  0.00  0.00     0.316 HD
BRANCH  12  14
HETATM   14  C           1     174.083 183.169 270.594  0.00  0.00     0.300 C 
BRANCH  14  15
HETATM   15  C           1     175.558 182.796 270.628  0.00  0.00     0.302 C 
BRANCH  15  16
HETATM   16  N           1     176.146 183.042 269.339  0.00  0.00     0.093 N 
HETATM   17  C           1     175.272 182.405 268.338  0.00  0.00     0.302 C 
HETATM   18  C           1     175.630 182.796 266.888  0.00  0.00     0.302 C 
HETATM   19  N           1     175.641 184.254 266.673  0.00  0.00     0.087 N 
HETATM   20  C           1     176.221 184.482 265.376  0.00  0.00     0.310 C 
HETATM   21  C           1     176.515 184.891 267.673  0.00  0.00     0.302 C 
HETATM   22  C           1     176.157 184.500 269.123  0.00  0.00     0.302 C 
ENDBRANCH  15  16
ENDBRANCH  14  15
ENDBRANCH  12  14
ENDBRANCH  11  12
ENDBRANCH   9  11
BRANCH   8  23
HETATM   23  S           1     174.696 187.533 270.913  0.00  0.00    -0.105 SA
BRANCH  23  24
HETATM   24  C           1     173.618 188.732 271.747  0.00  0.00     0.119 C 
BRANCH  24  25
HETATM   25  C           1     174.174 190.110 271.573  0.00  0.00    -0.049 A 
HETATM   26  C           1     173.616 191.182 272.270  0.00  0.00     0.008 A 
HETATM   27  C           1     174.134 192.466 272.107  0.00  0.00     0.001 A 
HETATM   28  C           1     175.211 192.680 271.246  0.00  0.00     0.000 A 
HETATM   29  C           1     175.769 191.609 270.550  0.00  0.00     0.001 A 
HETATM   30  C           1     175.251 190.324 270.712  0.00  0.00     0.008 A 
ENDBRANCH  24  25
ENDBRANCH  23  24
ENDBRANCH   8  23
TORSDOF 8
ENDMDL
MODEL 7
REMARK VINA RESULT:      -7.1      7.433     10.983
REMARK  8 active torsions:
REMARK  status: ('A' for Active; 'I' for Inactive)
REMARK    1  A    between atoms: C_8  and  S_22 
REMARK    2  A    between atoms: C_9  and  C_11 
REMARK    3  A    between atoms: C_11  and  N_12 
REMARK    4  A    between atoms: N_12  and  C_13 
REMARK    5  A    between atoms: C_13  and  C_14 
REMARK    6  A    between atoms: C_14  and  N_15 
REMARK    7  A    between atoms: S_22  and  C_23 
REMARK    8  A    between atoms: C_23  and  C_24 
ROOT
HETATM    1  C           1     170.850 191.431 281.313  0.00  0.00     0.001 A 
HETATM    2  C           1     171.527 191.456 282.527  0.00  0.00     0.002 A 
HETATM    3  C           1     172.324 190.371 282.904  0.00  0.00     0.032 A 
HETATM    4  C           1     172.464 189.252 282.094  0.00  0.00     0.068 A 
HETATM    5  C           1     171.775 189.231 280.862  0.00  0.00    -0.007 A 
HETATM    6  C           1     170.973 190.321 280.481  0.00  0.00     0.014 A 
HETATM    7  N           1     173.242 188.232 282.501  0.00  0.00    -0.241 NA
HETATM    8  C           1     173.356 187.159 281.688  0.00  0.00     0.102 A 
HETATM    9  C           1     172.722 187.045 280.465  0.00  0.00     0.006 A 
HETATM   10  C           1     171.919 188.100 280.048  0.00  0.00     0.025 A 
ENDROOT
BRANCH   9  11
HETATM   11  C           1     172.896 185.825 279.617  0.00  0.00     0.311 C 
BRANCH  11  12
HETATM   12  N           1     171.897 185.813 278.582  0.00  0.00     0.089 N 
HETATM   13  H           1     171.184 185.119 278.806  0.00  0.00     0.316 HD
BRANCH  12  14
HETATM   14  C           1     172.547 185.451 277.351  0.00  0.00     0.300 C 
BRANCH  14  15
HETATM   15  C           1     172.663 186.678 276.458  0.00  0.00     0.302 C 
BRANCH  15  16
HETATM   16  N           1     173.833 186.562 275.631  0.00  0.00     0.093 N 
HETATM   17  C           1     174.664 187.752 275.890  0.00  0.00     0.302 C 
HETATM   18  C           1     176.073 187.651 275.269  0.00  0.00     0.302 C 
HETATM   19  N           1     176.802 186.443 275.693  0.00  0.00     0.087 N 
HETATM   20  C           1     177.974 186.348 274.865  0.00  0.00     0.310 C 
HETATM   21  C           1     175.973 185.253 275.434  0.00  0.00     0.302 C 
HETATM   22  C           1     174.564 185.354 276.055  0.00  0.00     0.302 C 
ENDBRANCH  15  16
ENDBRANCH  14  15
ENDBRANCH  12  14
ENDBRANCH  11  12
ENDBRANCH   9  11
BRANCH   8  23
HETATM   23  S           1     174.406 185.783 282.235  0.00  0.00    -0.105 SA
BRANCH  23  24
HETATM   24  C           1     173.090 185.001 283.210  0.00  0.00     0.119 C 
BRANCH  24  25
HETATM   25  C           1     173.408 185.123 284.667  0.00  0.00    -0.049 A 
HETATM   26  C           1     174.736 185.176 285.090  0.00  0.00     0.008 A 
HETATM   27  C           1     175.032 185.288 286.448  0.00  0.00     0.001 A 
HETATM   28  C           1     174.000 185.348 287.385  0.00  0.00     0.000 A 
HETATM   29  C           1     172.672 185.296 286.962  0.00  0.00     0.001 A 
HETATM   30  C           1     172.376 185.182 285.604  0.00  0.00     0.008 A 
ENDBRANCH  24  25
ENDBRANCH  23  24
ENDBRANCH   8  23
TORSDOF 8
ENDMDL
MODEL 8
REMARK VINA RESULT:      -7.0      3.533      8.118
REMARK  8 active torsions:
REMARK  status: ('A' for Active; 'I' for Inactive)
REMARK    1  A    between atoms: C_8  and  S_22 
REMARK    2  A    between atoms: C_9  and  C_11 
REMARK    3  A    between atoms: C_11  and  N_12 
REMARK    4  A    between atoms: N_12  and  C_13 
REMARK    5  A    between atoms: C_13  and  C_14 
REMARK    6  A    between atoms: C_14  and  N_15 
REMARK    7  A    between atoms: S_22  and  C_23 
REMARK    8  A    between atoms: C_23  and  C_24 
ROOT
HETATM    1  C           1     177.426 183.106 263.748  0.00  0.00     0.001 A 
HETATM    2  C           1     176.484 183.973 263.206  0.00  0.00     0.002 A 
HETATM    3  C           1     175.692 184.758 264.051  0.00  0.00     0.032 A 
HETATM    4  C           1     175.817 184.699 265.432  0.00  0.00     0.068 A 
HETATM    5  C           1     176.775 183.817 265.977  0.00  0.00    -0.007 A 
HETATM    6  C           1     177.573 183.026 265.131  0.00  0.00     0.014 A 
HETATM    7  N           1     175.031 185.473 266.203  0.00  0.00    -0.241 NA
HETATM    8  C           1     175.180 185.391 267.543  0.00  0.00     0.102 A 
HETATM    9  C           1     176.088 184.559 268.170  0.00  0.00     0.006 A 
HETATM   10  C           1     176.898 183.760 267.372  0.00  0.00     0.025 A 
ENDROOT
BRANCH   9  11
HETATM   11  C           1     176.197 184.521 269.662  0.00  0.00     0.311 C 
BRANCH  11  12
HETATM   12  N           1     175.985 183.176 270.125  0.00  0.00     0.089 N 
HETATM   13  H           1     175.434 182.663 269.437  0.00  0.00     0.316 HD
BRANCH  12  14
HETATM   14  C           1     175.257 183.250 271.363  0.00  0.00     0.300 C 
BRANCH  14  15
HETATM   15  C           1     175.133 184.705 271.794  0.00  0.00     0.302 C 
BRANCH  15  16
HETATM   16  N           1     175.240 184.793 273.225  0.00  0.00     0.093 N 
HETATM   17  C           1     176.372 185.690 273.517  0.00  0.00     0.302 C 
HETATM   18  C           1     176.458 186.088 275.006  0.00  0.00     0.302 C 
HETATM   19  N           1     175.211 186.691 275.512  0.00  0.00     0.087 N 
HETATM   20  C           1     175.340 186.782 276.942  0.00  0.00     0.310 C 
HETATM   21  C           1     174.080 185.794 275.220  0.00  0.00     0.302 C 
HETATM   22  C           1     173.994 185.396 273.731  0.00  0.00     0.302 C 
ENDBRANCH  15  16
ENDBRANCH  14  15
ENDBRANCH  12  14
ENDBRANCH  11  12
ENDBRANCH   9  11
BRANCH   8  23
HETATM   23  S           1     174.121 186.435 268.584  0.00  0.00    -0.105 SA
BRANCH  23  24
HETATM   24  C           1     174.563 187.967 267.717  0.00  0.00     0.119 C 
BRANCH  24  25
HETATM   25  C           1     173.322 188.749 267.419  0.00  0.00    -0.049 A 
HETATM   26  C           1     172.239 188.129 266.796  0.00  0.00     0.008 A 
HETATM   27  C           1     171.083 188.858 266.518  0.00  0.00     0.001 A 
HETATM   28  C           1     171.009 190.208 266.864  0.00  0.00     0.000 A 
HETATM   29  C           1     172.092 190.827 267.488  0.00  0.00     0.001 A 
HETATM   30  C           1     173.248 190.099 267.765  0.00  0.00     0.008 A 
ENDBRANCH  24  25
ENDBRANCH  23  24
ENDBRANCH   8  23
TORSDOF 8
ENDMDL
MODEL 9
REMARK VINA RESULT:      -7.0      7.772     11.316
REMARK  8 active torsions:
REMARK  status: ('A' for Active; 'I' for Inactive)
REMARK    1  A    between atoms: C_8  and  S_22 
REMARK    2  A    between atoms: C_9  and  C_11 
REMARK    3  A    between atoms: C_11  and  N_12 
REMARK    4  A    between atoms: N_12  and  C_13 
REMARK    5  A    between atoms: C_13  and  C_14 
REMARK    6  A    between atoms: C_14  and  N_15 
REMARK    7  A    between atoms: S_22  and  C_23 
REMARK    8  A    between atoms: C_23  and  C_24 
ROOT
HETATM    1  C           1     174.498 184.690 286.307  0.00  0.00     0.001 A 
HETATM    2  C           1     173.814 185.793 286.807  0.00  0.00     0.002 A 
HETATM    3  C           1     173.286 186.743 285.928  0.00  0.00     0.032 A 
HETATM    4  C           1     173.424 186.621 284.552  0.00  0.00     0.068 A 
HETATM    5  C           1     174.119 185.500 284.049  0.00  0.00    -0.007 A 
HETATM    6  C           1     174.652 184.543 284.930  0.00  0.00     0.014 A 
HETATM    7  N           1     172.898 187.563 283.747  0.00  0.00    -0.241 NA
HETATM    8  C           1     173.051 187.412 282.413  0.00  0.00     0.102 A 
HETATM    9  C           1     173.714 186.351 281.825  0.00  0.00     0.006 A 
HETATM   10  C           1     174.256 185.381 282.659  0.00  0.00     0.025 A 
ENDROOT
BRANCH   9  11
HETATM   11  C           1     173.844 186.251 280.338  0.00  0.00     0.311 C 
BRANCH  11  12
HETATM   12  N           1     172.884 185.305 279.835  0.00  0.00     0.089 N 
HETATM   13  H           1     173.241 184.359 279.961  0.00  0.00     0.316 HD
BRANCH  12  14
HETATM   14  C           1     172.706 185.568 278.432  0.00  0.00     0.300 C 
BRANCH  14  15
HETATM   15  C           1     173.890 186.372 277.912  0.00  0.00     0.302 C 
BRANCH  15  16
HETATM   16  N           1     174.499 185.674 276.813  0.00  0.00     0.093 N 
HETATM   17  C           1     173.596 185.816 275.658  0.00  0.00     0.302 C 
HETATM   18  C           1     174.229 185.337 274.334  0.00  0.00     0.302 C 
HETATM   19  N           1     175.510 186.002 274.038  0.00  0.00     0.087 N 
HETATM   20  C           1     176.101 185.298 272.930  0.00  0.00     0.310 C 
HETATM   21  C           1     176.415 185.860 275.192  0.00  0.00     0.302 C 
HETATM   22  C           1     175.781 186.338 276.516  0.00  0.00     0.302 C 
ENDBRANCH  15  16
ENDBRANCH  14  15
ENDBRANCH  12  14
ENDBRANCH  11  12
ENDBRANCH   9  11
BRANCH   8  23
HETATM   23  S           1     172.342 188.681 281.325  0.00  0.00    -0.105 SA
BRANCH  23  24
HETATM   24  C           1     172.788 190.054 282.425  0.00  0.00     0.119 C 
BRANCH  24  25
HETATM   25  C           1     171.594 190.929 282.643  0.00  0.00    -0.049 A 
HETATM   26  C           1     170.471 190.427 283.301  0.00  0.00     0.008 A 
HETATM   27  C           1     169.358 191.242 283.502  0.00  0.00     0.001 A 
HETATM   28  C           1     169.367 192.561 283.046  0.00  0.00     0.000 A 
HETATM   29  C           1     170.490 193.063 282.389  0.00  0.00     0.001 A 
HETATM   30  C           1     171.603 192.247 282.186  0.00  0.00     0.008 A 
ENDBRANCH  24  25
ENDBRANCH  23  24
ENDBRANCH   8  23
TORSDOF 8
ENDMDL
