MODEL 1
REMARK VINA RESULT:      -9.5      0.000      0.000
REMARK  8 active torsions:
REMARK  status: ('A' for Active; 'I' for Inactive)
REMARK    1  A    between atoms: C_8  and  S_27 
REMARK    2  A    between atoms: C_9  and  C_11 
REMARK    3  A    between atoms: C_11  and  N_12 
REMARK    4  A    between atoms: S_27  and  C_28 
REMARK    5  A    between atoms: N_12  and  C_14 
REMARK    6  A    between atoms: C_14  and  C_15 
REMARK    7  A    between atoms: C_18  and  N_21 
REMARK    8  A    between atoms: C_28  and  C_29 
ROOT
HETATM    1  C           1     171.538 191.423 282.454  0.00  0.00     0.001 A 
HETATM    2  C           1     170.776 191.540 281.298  0.00  0.00     0.002 A 
HETATM    3  C           1     170.742 190.488 280.378  0.00  0.00     0.032 A 
HETATM    4  C           1     171.455 189.313 280.583  0.00  0.00     0.068 A 
HETATM    5  C           1     172.228 189.201 281.758  0.00  0.00    -0.007 A 
HETATM    6  C           1     172.264 190.257 282.687  0.00  0.00     0.014 A 
HETATM    7  N           1     171.390 188.329 279.667  0.00  0.00    -0.241 NA
HETATM    8  C           1     172.097 187.201 279.899  0.00  0.00     0.102 A 
HETATM    9  C           1     172.881 186.998 281.019  0.00  0.00     0.006 A 
HETATM   10  C           1     172.946 188.016 281.962  0.00  0.00     0.025 A 
ENDROOT
BRANCH   9  11
HETATM   11  C           1     173.637 185.721 281.210  0.00  0.00     0.311 C 
BRANCH  11  12
HETATM   12  N           1     173.128 185.029 282.364  0.00  0.00     0.091 N 
HETATM   13  H           1     172.557 185.666 282.919  0.00  0.00     0.316 HD
BRANCH  12  14
HETATM   14  C           1     174.254 184.590 283.143  0.00  0.00     0.308 C 
BRANCH  14  15
HETATM   15  C           1     174.114 185.090 284.548  0.00  0.00    -0.030 A 
HETATM   16  C           1     175.117 184.830 285.482  0.00  0.00     0.011 A 
HETATM   17  C           1     174.986 185.296 286.792  0.00  0.00     0.030 A 
HETATM   18  C           1     173.855 186.020 287.165  0.00  0.00     0.030 A 
HETATM   19  C           1     172.853 186.280 286.230  0.00  0.00     0.030 A 
HETATM   20  C           1     172.982 185.813 284.922  0.00  0.00     0.011 A 
BRANCH  18  21
HETATM   21  N           1     173.737 186.442 288.352  0.00  0.00    -0.381 N 
HETATM   22  C           1     174.560 185.989 289.474  0.00  0.00     0.123 C 
HETATM   23  C           1     173.706 185.391 290.590  0.00  0.00     0.020 C 
HETATM   24  C           1     172.637 186.375 291.056  0.00  0.00     0.003 C 
HETATM   25  C           1     171.837 186.900 289.868  0.00  0.00     0.020 C 
HETATM   26  C           1     172.759 187.444 288.778  0.00  0.00     0.123 C 
ENDBRANCH  18  21
ENDBRANCH  14  15
ENDBRANCH  12  14
ENDBRANCH  11  12
ENDBRANCH   9  11
BRANCH   8  27
HETATM   27  S           1     172.011 185.873 278.666  0.00  0.00    -0.105 SA
BRANCH  27  28
HETATM   28  C           1     172.644 186.910 277.318  0.00  0.00     0.119 C 
BRANCH  28  29
HETATM   29  C           1     173.978 186.394 276.875  0.00  0.00    -0.049 A 
HETATM   30  C           1     174.055 185.457 275.844  0.00  0.00     0.008 A 
HETATM   31  C           1     175.298 184.976 275.432  0.00  0.00     0.001 A 
HETATM   32  C           1     176.462 185.432 276.049  0.00  0.00     0.000 A 
HETATM   33  C           1     176.384 186.369 277.080  0.00  0.00     0.001 A 
HETATM   34  C           1     175.142 186.850 277.492  0.00  0.00     0.008 A 
ENDBRANCH  28  29
ENDBRANCH  27  28
ENDBRANCH   8  27
TORSDOF 8
ENDMDL
MODEL 2
REMARK VINA RESULT:      -9.0      4.209      7.661
REMARK  8 active torsions:
REMARK  status: ('A' for Active; 'I' for Inactive)
REMARK    1  A    between atoms: C_8  and  S_27 
REMARK    2  A    between atoms: C_9  and  C_11 
REMARK    3  A    between atoms: C_11  and  N_12 
REMARK    4  A    between atoms: S_27  and  C_28 
REMARK    5  A    between atoms: N_12  and  C_14 
REMARK    6  A    between atoms: C_14  and  C_15 
REMARK    7  A    between atoms: C_18  and  N_21 
REMARK    8  A    between atoms: C_28  and  C_29 
ROOT
HETATM    1  C           1     174.699 192.432 271.571  0.00  0.00     0.001 A 
HETATM    2  C           1     175.527 191.832 270.630  0.00  0.00     0.002 A 
HETATM    3  C           1     175.583 190.438 270.540  0.00  0.00     0.032 A 
HETATM    4  C           1     174.828 189.620 271.371  0.00  0.00     0.068 A 
HETATM    5  C           1     173.989 190.236 272.326  0.00  0.00    -0.007 A 
HETATM    6  C           1     173.930 191.638 272.419  0.00  0.00     0.014 A 
HETATM    7  N           1     174.917 188.284 271.246  0.00  0.00    -0.241 NA
HETATM    8  C           1     174.169 187.519 272.072  0.00  0.00     0.102 A 
HETATM    9  C           1     173.318 188.028 273.035  0.00  0.00     0.006 A 
HETATM   10  C           1     173.229 189.409 273.162  0.00  0.00     0.025 A 
ENDROOT
BRANCH   9  11
HETATM   11  C           1     172.519 187.119 273.916  0.00  0.00     0.311 C 
BRANCH  11  12
HETATM   12  N           1     172.852 187.370 275.292  0.00  0.00     0.091 N 
HETATM   13  H           1     173.787 187.013 275.487  0.00  0.00     0.316 HD
BRANCH  12  14
HETATM   14  C           1     171.894 186.675 276.108  0.00  0.00     0.308 C 
BRANCH  14  15
HETATM   15  C           1     172.378 186.635 277.524  0.00  0.00    -0.030 A 
HETATM   16  C           1     173.718 186.896 277.810  0.00  0.00     0.011 A 
HETATM   17  C           1     174.169 186.859 279.130  0.00  0.00     0.030 A 
HETATM   18  C           1     173.281 186.561 280.162  0.00  0.00     0.030 A 
HETATM   19  C           1     171.941 186.300 279.876  0.00  0.00     0.030 A 
HETATM   20  C           1     171.490 186.336 278.557  0.00  0.00     0.011 A 
BRANCH  18  21
HETATM   21  N           1     173.691 186.527 281.359  0.00  0.00    -0.381 N 
HETATM   22  C           1     175.099 186.602 281.752  0.00  0.00     0.123 C 
HETATM   23  C           1     175.523 185.372 282.552  0.00  0.00     0.020 C 
HETATM   24  C           1     174.625 185.167 283.768  0.00  0.00     0.003 C 
HETATM   25  C           1     173.156 185.169 283.356  0.00  0.00     0.020 C 
HETATM   26  C           1     172.816 186.406 282.527  0.00  0.00     0.123 C 
ENDBRANCH  18  21
ENDBRANCH  14  15
ENDBRANCH  12  14
ENDBRANCH  11  12
ENDBRANCH   9  11
BRANCH   8  27
HETATM   27  S           1     174.286 185.716 271.904  0.00  0.00    -0.105 SA
BRANCH  27  28
HETATM   28  C           1     176.082 185.682 272.165  0.00  0.00     0.119 C 
BRANCH  28  29
HETATM   29  C           1     176.373 185.659 273.634  0.00  0.00    -0.049 A 
HETATM   30  C           1     177.503 186.309 274.130  0.00  0.00     0.008 A 
HETATM   31  C           1     177.773 186.288 275.499  0.00  0.00     0.001 A 
HETATM   32  C           1     176.915 185.618 276.370  0.00  0.00     0.000 A 
HETATM   33  C           1     175.785 184.968 275.872  0.00  0.00     0.001 A 
HETATM   34  C           1     175.514 184.989 274.504  0.00  0.00     0.008 A 
ENDBRANCH  28  29
ENDBRANCH  27  28
ENDBRANCH   8  27
TORSDOF 8
ENDMDL
MODEL 3
REMARK VINA RESULT:      -8.4      2.262      5.449
REMARK  8 active torsions:
REMARK  status: ('A' for Active; 'I' for Inactive)
REMARK    1  A    between atoms: C_8  and  S_27 
REMARK    2  A    between atoms: C_9  and  C_11 
REMARK    3  A    between atoms: C_11  and  N_12 
REMARK    4  A    between atoms: S_27  and  C_28 
REMARK    5  A    between atoms: N_12  and  C_14 
REMARK    6  A    between atoms: C_14  and  C_15 
REMARK    7  A    between atoms: C_18  and  N_21 
REMARK    8  A    between atoms: C_28  and  C_29 
ROOT
HETATM    1  C           1     171.627 185.451 277.688  0.00  0.00     0.001 A 
HETATM    2  C           1     170.940 186.659 277.695  0.00  0.00     0.002 A 
HETATM    3  C           1     171.119 187.556 278.752  0.00  0.00     0.032 A 
HETATM    4  C           1     171.974 187.277 279.812  0.00  0.00     0.068 A 
HETATM    5  C           1     172.668 186.048 279.800  0.00  0.00    -0.007 A 
HETATM    6  C           1     172.491 185.143 278.737  0.00  0.00     0.014 A 
HETATM    7  N           1     172.113 188.172 280.806  0.00  0.00    -0.241 NA
HETATM    8  C           1     172.951 187.868 281.820  0.00  0.00     0.102 A 
HETATM    9  C           1     173.675 186.692 281.897  0.00  0.00     0.006 A 
HETATM   10  C           1     173.529 185.769 280.869  0.00  0.00     0.025 A 
ENDROOT
BRANCH   9  11
HETATM   11  C           1     174.587 186.422 283.052  0.00  0.00     0.311 C 
BRANCH  11  12
HETATM   12  N           1     174.165 185.223 283.726  0.00  0.00     0.091 N 
HETATM   13  H           1     174.173 184.442 283.071  0.00  0.00     0.316 HD
BRANCH  12  14
HETATM   14  C           1     172.824 185.437 284.200  0.00  0.00     0.308 C 
BRANCH  14  15
HETATM   15  C           1     172.851 185.709 285.672  0.00  0.00    -0.030 A 
HETATM   16  C           1     173.768 185.044 286.487  0.00  0.00     0.011 A 
HETATM   17  C           1     173.793 185.299 287.859  0.00  0.00     0.030 A 
HETATM   18  C           1     172.903 186.217 288.414  0.00  0.00     0.030 A 
HETATM   19  C           1     171.987 186.882 287.599  0.00  0.00     0.030 A 
HETATM   20  C           1     171.961 186.627 286.228  0.00  0.00     0.011 A 
BRANCH  18  21
HETATM   21  N           1     172.926 186.447 289.659  0.00  0.00    -0.381 N 
HETATM   22  C           1     173.540 185.562 290.650  0.00  0.00     0.123 C 
HETATM   23  C           1     172.526 185.105 291.696  0.00  0.00     0.020 C 
HETATM   24  C           1     171.849 186.295 292.368  0.00  0.00     0.003 C 
HETATM   25  C           1     171.281 187.249 291.322  0.00  0.00     0.020 C 
HETATM   26  C           1     172.340 187.631 290.289  0.00  0.00     0.123 C 
ENDBRANCH  18  21
ENDBRANCH  14  15
ENDBRANCH  12  14
ENDBRANCH  11  12
ENDBRANCH   9  11
BRANCH   8  27
HETATM   27  S           1     173.141 189.075 283.162  0.00  0.00    -0.105 SA
BRANCH  27  28
HETATM   28  C           1     172.569 190.473 282.156  0.00  0.00     0.119 C 
BRANCH  28  29
HETATM   29  C           1     171.421 191.146 282.843  0.00  0.00    -0.049 A 
HETATM   30  C           1     171.386 192.537 282.938  0.00  0.00     0.008 A 
HETATM   31  C           1     170.316 193.164 283.579  0.00  0.00     0.001 A 
HETATM   32  C           1     169.284 192.401 284.123  0.00  0.00     0.000 A 
HETATM   33  C           1     169.321 191.010 284.027  0.00  0.00     0.001 A 
HETATM   34  C           1     170.389 190.383 283.387  0.00  0.00     0.008 A 
ENDBRANCH  28  29
ENDBRANCH  27  28
ENDBRANCH   8  27
TORSDOF 8
ENDMDL
MODEL 4
REMARK VINA RESULT:      -8.4      4.144      7.736
REMARK  8 active torsions:
REMARK  status: ('A' for Active; 'I' for Inactive)
REMARK    1  A    between atoms: C_8  and  S_27 
REMARK    2  A    between atoms: C_9  and  C_11 
REMARK    3  A    between atoms: C_11  and  N_12 
REMARK    4  A    between atoms: S_27  and  C_28 
REMARK    5  A    between atoms: N_12  and  C_14 
REMARK    6  A    between atoms: C_14  and  C_15 
REMARK    7  A    between atoms: C_18  and  N_21 
REMARK    8  A    between atoms: C_28  and  C_29 
ROOT
HETATM    1  C           1     177.593 185.735 276.322  0.00  0.00     0.001 A 
HETATM    2  C           1     178.163 186.112 275.112  0.00  0.00     0.002 A 
HETATM    3  C           1     177.352 186.595 274.081  0.00  0.00     0.032 A 
HETATM    4  C           1     175.975 186.713 274.227  0.00  0.00     0.068 A 
HETATM    5  C           1     175.402 186.328 275.457  0.00  0.00    -0.007 A 
HETATM    6  C           1     176.215 185.842 276.498  0.00  0.00     0.014 A 
HETATM    7  N           1     175.238 187.183 273.205  0.00  0.00    -0.241 NA
HETATM    8  C           1     173.902 187.283 273.382  0.00  0.00     0.102 A 
HETATM    9  C           1     173.249 186.933 274.549  0.00  0.00     0.006 A 
HETATM   10  C           1     174.014 186.447 275.602  0.00  0.00     0.025 A 
ENDROOT
BRANCH   9  11
HETATM   11  C           1     171.764 187.072 274.674  0.00  0.00     0.311 C 
BRANCH  11  12
HETATM   12  N           1     171.450 187.812 275.866  0.00  0.00     0.091 N 
HETATM   13  H           1     172.313 188.109 276.320  0.00  0.00     0.316 HD
BRANCH  12  14
HETATM   14  C           1     170.722 186.938 276.745  0.00  0.00     0.308 C 
BRANCH  14  15
HETATM   15  C           1     171.433 186.845 278.059  0.00  0.00    -0.030 A 
HETATM   16  C           1     171.375 187.910 278.959  0.00  0.00     0.011 A 
HETATM   17  C           1     172.038 187.823 280.185  0.00  0.00     0.030 A 
HETATM   18  C           1     172.757 186.673 280.509  0.00  0.00     0.030 A 
HETATM   19  C           1     172.814 185.609 279.609  0.00  0.00     0.030 A 
HETATM   20  C           1     172.153 185.696 278.383  0.00  0.00     0.011 A 
BRANCH  18  21
HETATM   21  N           1     173.358 186.595 281.620  0.00  0.00    -0.381 N 
HETATM   22  C           1     174.708 187.105 281.865  0.00  0.00     0.123 C 
HETATM   23  C           1     175.648 185.997 282.334  0.00  0.00     0.020 C 
HETATM   24  C           1     175.097 185.289 283.567  0.00  0.00     0.003 C 
HETATM   25  C           1     173.662 184.831 283.326  0.00  0.00     0.020 C 
HETATM   26  C           1     172.792 185.981 282.822  0.00  0.00     0.123 C 
ENDBRANCH  18  21
ENDBRANCH  14  15
ENDBRANCH  12  14
ENDBRANCH  11  12
ENDBRANCH   9  11
BRANCH   8  27
HETATM   27  S           1     172.904 187.918 272.005  0.00  0.00    -0.105 SA
BRANCH  27  28
HETATM   28  C           1     174.348 188.378 271.005  0.00  0.00     0.119 C 
BRANCH  28  29
HETATM   29  C           1     174.561 189.857 271.087  0.00  0.00    -0.049 A 
HETATM   30  C           1     175.705 190.429 270.527  0.00  0.00     0.008 A 
HETATM   31  C           1     175.903 191.807 270.604  0.00  0.00     0.001 A 
HETATM   32  C           1     174.960 192.614 271.239  0.00  0.00     0.000 A 
HETATM   33  C           1     173.817 192.042 271.799  0.00  0.00     0.001 A 
HETATM   34  C           1     173.618 190.664 271.722  0.00  0.00     0.008 A 
ENDBRANCH  28  29
ENDBRANCH  27  28
ENDBRANCH   8  27
TORSDOF 8
ENDMDL
MODEL 5
REMARK VINA RESULT:      -8.2      2.266      4.118
REMARK  8 active torsions:
REMARK  status: ('A' for Active; 'I' for Inactive)
REMARK    1  A    between atoms: C_8  and  S_27 
REMARK    2  A    between atoms: C_9  and  C_11 
REMARK    3  A    between atoms: C_11  and  N_12 
REMARK    4  A    between atoms: S_27  and  C_28 
REMARK    5  A    between atoms: N_12  and  C_14 
REMARK    6  A    between atoms: C_14  and  C_15 
REMARK    7  A    between atoms: C_18  and  N_21 
REMARK    8  A    between atoms: C_28  and  C_29 
ROOT
HETATM    1  C           1     168.663 187.183 275.610  0.00  0.00     0.001 A 
HETATM    2  C           1     169.477 187.544 274.543  0.00  0.00     0.002 A 
HETATM    3  C           1     170.867 187.519 274.688  0.00  0.00     0.032 A 
HETATM    4  C           1     171.472 187.140 275.881  0.00  0.00     0.068 A 
HETATM    5  C           1     170.640 186.775 276.961  0.00  0.00    -0.007 A 
HETATM    6  C           1     169.240 186.799 276.818  0.00  0.00     0.014 A 
HETATM    7  N           1     172.814 187.132 275.971  0.00  0.00    -0.241 NA
HETATM    8  C           1     173.367 186.759 277.146  0.00  0.00     0.102 A 
HETATM    9  C           1     172.637 186.384 278.259  0.00  0.00     0.006 A 
HETATM   10  C           1     171.251 186.394 278.162  0.00  0.00     0.025 A 
ENDROOT
BRANCH   9  11
HETATM   11  C           1     173.319 185.981 279.529  0.00  0.00     0.311 C 
BRANCH  11  12
HETATM   12  N           1     172.396 186.098 280.626  0.00  0.00     0.091 N 
HETATM   13  H           1     171.451 186.228 280.264  0.00  0.00     0.316 HD
BRANCH  12  14
HETATM   14  C           1     172.777 187.249 281.398  0.00  0.00     0.308 C 
BRANCH  14  15
HETATM   15  C           1     172.727 186.913 282.856  0.00  0.00    -0.030 A 
HETATM   16  C           1     172.559 187.927 283.799  0.00  0.00     0.011 A 
HETATM   17  C           1     172.512 187.613 285.158  0.00  0.00     0.030 A 
HETATM   18  C           1     172.632 186.287 285.572  0.00  0.00     0.030 A 
HETATM   19  C           1     172.799 185.273 284.629  0.00  0.00     0.030 A 
HETATM   20  C           1     172.847 185.587 283.270  0.00  0.00     0.011 A 
BRANCH  18  21
HETATM   21  N           1     172.590 186.003 286.805  0.00  0.00    -0.381 N 
HETATM   22  C           1     171.591 185.124 287.416  0.00  0.00     0.123 C 
HETATM   23  C           1     170.803 185.845 288.507  0.00  0.00     0.020 C 
HETATM   24  C           1     171.733 186.435 289.562  0.00  0.00     0.003 C 
HETATM   25  C           1     172.816 187.286 288.907  0.00  0.00     0.020 C 
HETATM   26  C           1     173.533 186.513 287.802  0.00  0.00     0.123 C 
ENDBRANCH  18  21
ENDBRANCH  14  15
ENDBRANCH  12  14
ENDBRANCH  11  12
ENDBRANCH   9  11
BRANCH   8  27
HETATM   27  S           1     175.177 186.746 277.270  0.00  0.00    -0.105 SA
BRANCH  27  28
HETATM   28  C           1     175.351 185.145 276.432  0.00  0.00     0.119 C 
BRANCH  28  29
HETATM   29  C           1     175.682 185.371 274.990  0.00  0.00    -0.049 A 
HETATM   30  C           1     176.819 186.100 274.642  0.00  0.00     0.008 A 
HETATM   31  C           1     177.128 186.310 273.297  0.00  0.00     0.001 A 
HETATM   32  C           1     176.300 185.791 272.302  0.00  0.00     0.000 A 
HETATM   33  C           1     175.163 185.062 272.651  0.00  0.00     0.001 A 
HETATM   34  C           1     174.855 184.852 273.994  0.00  0.00     0.008 A 
ENDBRANCH  28  29
ENDBRANCH  27  28
ENDBRANCH   8  27
TORSDOF 8
ENDMDL
MODEL 6
REMARK VINA RESULT:      -8.1      1.602      2.156
REMARK  8 active torsions:
REMARK  status: ('A' for Active; 'I' for Inactive)
REMARK    1  A    between atoms: C_8  and  S_27 
REMARK    2  A    between atoms: C_9  and  C_11 
REMARK    3  A    between atoms: C_11  and  N_12 
REMARK    4  A    between atoms: S_27  and  C_28 
REMARK    5  A    between atoms: N_12  and  C_14 
REMARK    6  A    between atoms: C_14  and  C_15 
REMARK    7  A    between atoms: C_18  and  N_21 
REMARK    8  A    between atoms: C_28  and  C_29 
ROOT
HETATM    1  C           1     171.264 191.962 281.828  0.00  0.00     0.001 A 
HETATM    2  C           1     170.378 191.660 280.802  0.00  0.00     0.002 A 
HETATM    3  C           1     170.477 190.435 280.135  0.00  0.00     0.032 A 
HETATM    4  C           1     171.445 189.496 280.468  0.00  0.00     0.068 A 
HETATM    5  C           1     172.344 189.810 281.510  0.00  0.00    -0.007 A 
HETATM    6  C           1     172.247 191.041 282.184  0.00  0.00     0.014 A 
HETATM    7  N           1     171.500 188.332 279.796  0.00  0.00    -0.241 NA
HETATM    8  C           1     172.456 187.443 280.146  0.00  0.00     0.102 A 
HETATM    9  C           1     173.379 187.658 281.153  0.00  0.00     0.006 A 
HETATM   10  C           1     173.320 188.863 281.844  0.00  0.00     0.025 A 
ENDROOT
BRANCH   9  11
HETATM   11  C           1     174.411 186.627 281.486  0.00  0.00     0.311 C 
BRANCH  11  12
HETATM   12  N           1     175.272 187.128 282.523  0.00  0.00     0.091 N 
HETATM   13  H           1     176.159 187.423 282.116  0.00  0.00     0.316 HD
BRANCH  12  14
HETATM   14  C           1     175.504 186.058 283.455  0.00  0.00     0.308 C 
BRANCH  14  15
HETATM   15  C           1     174.444 186.077 284.512  0.00  0.00    -0.030 A 
HETATM   16  C           1     173.687 187.230 284.720  0.00  0.00     0.011 A 
HETATM   17  C           1     172.699 187.247 285.705  0.00  0.00     0.030 A 
HETATM   18  C           1     172.468 186.112 286.481  0.00  0.00     0.030 A 
HETATM   19  C           1     173.225 184.959 286.273  0.00  0.00     0.030 A 
HETATM   20  C           1     174.214 184.942 285.289  0.00  0.00     0.011 A 
BRANCH  18  21
HETATM   21  N           1     171.572 186.128 287.375  0.00  0.00    -0.381 N 
HETATM   22  C           1     171.033 184.932 288.023  0.00  0.00     0.123 C 
HETATM   23  C           1     169.523 184.820 287.825  0.00  0.00     0.020 C 
HETATM   24  C           1     168.807 186.077 288.309  0.00  0.00     0.003 C 
HETATM   25  C           1     169.430 187.322 287.686  0.00  0.00     0.020 C 
HETATM   26  C           1     170.943 187.345 287.890  0.00  0.00     0.123 C 
ENDBRANCH  18  21
ENDBRANCH  14  15
ENDBRANCH  12  14
ENDBRANCH  11  12
ENDBRANCH   9  11
BRANCH   8  27
HETATM   27  S           1     172.531 185.872 279.242  0.00  0.00    -0.105 SA
BRANCH  27  28
HETATM   28  C           1     172.699 186.668 277.619  0.00  0.00     0.119 C 
BRANCH  28  29
HETATM   29  C           1     174.011 186.284 277.008  0.00  0.00    -0.049 A 
HETATM   30  C           1     175.193 186.856 277.481  0.00  0.00     0.008 A 
HETATM   31  C           1     176.415 186.498 276.912  0.00  0.00     0.001 A 
HETATM   32  C           1     176.457 185.570 275.872  0.00  0.00     0.000 A 
HETATM   33  C           1     175.275 185.000 275.400  0.00  0.00     0.001 A 
HETATM   34  C           1     174.052 185.356 275.968  0.00  0.00     0.008 A 
ENDBRANCH  28  29
ENDBRANCH  27  28
ENDBRANCH   8  27
TORSDOF 8
ENDMDL
MODEL 7
REMARK VINA RESULT:      -8.0      2.809     10.423
REMARK  8 active torsions:
REMARK  status: ('A' for Active; 'I' for Inactive)
REMARK    1  A    between atoms: C_8  and  S_27 
REMARK    2  A    between atoms: C_9  and  C_11 
REMARK    3  A    between atoms: C_11  and  N_12 
REMARK    4  A    between atoms: S_27  and  C_28 
REMARK    5  A    between atoms: N_12  and  C_14 
REMARK    6  A    between atoms: C_14  and  C_15 
REMARK    7  A    between atoms: C_18  and  N_21 
REMARK    8  A    between atoms: C_28  and  C_29 
ROOT
HETATM    1  C           1     170.292 190.999 281.553  0.00  0.00     0.001 A 
HETATM    2  C           1     170.983 191.143 282.750  0.00  0.00     0.002 A 
HETATM    3  C           1     172.051 190.290 283.044  0.00  0.00     0.032 A 
HETATM    4  C           1     172.450 189.288 282.168  0.00  0.00     0.068 A 
HETATM    5  C           1     171.743 189.146 280.955  0.00  0.00    -0.007 A 
HETATM    6  C           1     170.668 190.002 280.655  0.00  0.00     0.014 A 
HETATM    7  N           1     173.484 188.493 282.497  0.00  0.00    -0.241 NA
HETATM    8  C           1     173.844 187.528 281.622  0.00  0.00     0.102 A 
HETATM    9  C           1     173.215 187.311 280.410  0.00  0.00     0.006 A 
HETATM   10  C           1     172.147 188.135 280.074  0.00  0.00     0.025 A 
ENDROOT
BRANCH   9  11
HETATM   11  C           1     173.668 186.222 279.489  0.00  0.00     0.311 C 
BRANCH  11  12
HETATM   12  N           1     173.650 186.702 278.133  0.00  0.00     0.091 N 
HETATM   13  H           1     173.071 186.087 277.562  0.00  0.00     0.316 HD
BRANCH  12  14
HETATM   14  C           1     175.001 186.680 277.643  0.00  0.00     0.308 C 
BRANCH  14  15
HETATM   15  C           1     175.008 186.229 276.215  0.00  0.00    -0.030 A 
HETATM   16  C           1     173.820 185.821 275.608  0.00  0.00     0.011 A 
HETATM   17  C           1     173.826 185.401 274.277  0.00  0.00     0.030 A 
HETATM   18  C           1     175.019 185.389 273.555  0.00  0.00     0.030 A 
HETATM   19  C           1     176.207 185.797 274.163  0.00  0.00     0.030 A 
HETATM   20  C           1     176.201 186.216 275.494  0.00  0.00     0.011 A 
BRANCH  18  21
HETATM   21  N           1     175.024 185.008 272.348  0.00  0.00    -0.381 N 
HETATM   22  C           1     174.035 184.099 271.766  0.00  0.00     0.123 C 
HETATM   23  C           1     174.695 182.847 271.192  0.00  0.00     0.020 C 
HETATM   24  C           1     175.775 183.206 270.177  0.00  0.00     0.003 C 
HETATM   25  C           1     176.755 184.213 270.770  0.00  0.00     0.020 C 
HETATM   26  C           1     176.022 185.417 271.359  0.00  0.00     0.123 C 
ENDBRANCH  18  21
ENDBRANCH  14  15
ENDBRANCH  12  14
ENDBRANCH  11  12
ENDBRANCH   9  11
BRANCH   8  27
HETATM   27  S           1     175.238 186.454 282.063  0.00  0.00    -0.105 SA
BRANCH  27  28
HETATM   28  C           1     174.184 185.022 282.428  0.00  0.00     0.119 C 
BRANCH  28  29
HETATM   29  C           1     173.877 184.990 283.893  0.00  0.00    -0.049 A 
HETATM   30  C           1     174.879 184.660 284.808  0.00  0.00     0.008 A 
HETATM   31  C           1     174.592 184.630 286.173  0.00  0.00     0.001 A 
HETATM   32  C           1     173.307 184.929 286.623  0.00  0.00     0.000 A 
HETATM   33  C           1     172.307 185.258 285.709  0.00  0.00     0.001 A 
HETATM   34  C           1     172.592 185.289 284.344  0.00  0.00     0.008 A 
ENDBRANCH  28  29
ENDBRANCH  27  28
ENDBRANCH   8  27
TORSDOF 8
ENDMDL
MODEL 8
REMARK VINA RESULT:      -8.0      8.850     11.665
REMARK  8 active torsions:
REMARK  status: ('A' for Active; 'I' for Inactive)
REMARK    1  A    between atoms: C_8  and  S_27 
REMARK    2  A    between atoms: C_9  and  C_11 
REMARK    3  A    between atoms: C_11  and  N_12 
REMARK    4  A    between atoms: S_27  and  C_28 
REMARK    5  A    between atoms: N_12  and  C_14 
REMARK    6  A    between atoms: C_14  and  C_15 
REMARK    7  A    between atoms: C_18  and  N_21 
REMARK    8  A    between atoms: C_28  and  C_29 
ROOT
HETATM    1  C           1     174.148 192.439 271.711  0.00  0.00     0.001 A 
HETATM    2  C           1     175.335 192.262 271.009  0.00  0.00     0.002 A 
HETATM    3  C           1     175.487 191.156 270.167  0.00  0.00     0.032 A 
HETATM    4  C           1     174.479 190.215 270.006  0.00  0.00     0.068 A 
HETATM    5  C           1     173.277 190.399 270.723  0.00  0.00    -0.007 A 
HETATM    6  C           1     173.119 191.510 271.570  0.00  0.00     0.014 A 
HETATM    7  N           1     174.674 189.168 269.185  0.00  0.00    -0.241 NA
HETATM    8  C           1     173.672 188.271 269.053  0.00  0.00     0.102 A 
HETATM    9  C           1     172.459 188.365 269.710  0.00  0.00     0.006 A 
HETATM   10  C           1     172.262 189.448 270.559  0.00  0.00     0.025 A 
ENDROOT
BRANCH   9  11
HETATM   11  C           1     171.394 187.333 269.516  0.00  0.00     0.311 C 
BRANCH  11  12
HETATM   12  N           1     170.867 186.940 270.795  0.00  0.00     0.091 N 
HETATM   13  H           1     171.145 187.621 271.502  0.00  0.00     0.316 HD
BRANCH  12  14
HETATM   14  C           1     171.423 185.656 271.122  0.00  0.00     0.308 C 
BRANCH  14  15
HETATM   15  C           1     172.480 185.820 272.170  0.00  0.00    -0.030 A 
HETATM   16  C           1     173.515 184.891 272.267  0.00  0.00     0.011 A 
HETATM   17  C           1     174.500 185.045 273.244  0.00  0.00     0.030 A 
HETATM   18  C           1     174.449 186.126 274.122  0.00  0.00     0.030 A 
HETATM   19  C           1     173.413 187.056 274.024  0.00  0.00     0.030 A 
HETATM   20  C           1     172.428 186.901 273.049  0.00  0.00     0.011 A 
BRANCH  18  21
HETATM   21  N           1     175.342 186.265 275.008  0.00  0.00    -0.381 N 
HETATM   22  C           1     176.417 187.257 274.948  0.00  0.00     0.123 C 
HETATM   23  C           1     177.792 186.595 274.990  0.00  0.00     0.020 C 
HETATM   24  C           1     177.939 185.701 276.216  0.00  0.00     0.003 C 
HETATM   25  C           1     176.771 184.724 276.310  0.00  0.00     0.020 C 
HETATM   26  C           1     175.432 185.453 276.222  0.00  0.00     0.123 C 
ENDBRANCH  18  21
ENDBRANCH  14  15
ENDBRANCH  12  14
ENDBRANCH  11  12
ENDBRANCH   9  11
BRANCH   8  27
HETATM   27  S           1     173.933 186.858 267.944  0.00  0.00    -0.105 SA
BRANCH  27  28
HETATM   28  C           1     175.554 186.443 268.647  0.00  0.00     0.119 C 
BRANCH  28  29
HETATM   29  C           1     175.535 185.033 269.148  0.00  0.00    -0.049 A 
HETATM   30  C           1     174.460 184.198 268.839  0.00  0.00     0.008 A 
HETATM   31  C           1     174.443 182.883 269.305  0.00  0.00     0.001 A 
HETATM   32  C           1     175.498 182.404 270.081  0.00  0.00     0.000 A 
HETATM   33  C           1     176.571 183.239 270.391  0.00  0.00     0.001 A 
HETATM   34  C           1     176.590 184.553 269.924  0.00  0.00     0.008 A 
ENDBRANCH  28  29
ENDBRANCH  27  28
ENDBRANCH   8  27
TORSDOF 8
ENDMDL
MODEL 9
REMARK VINA RESULT:      -8.0      9.737     17.359
REMARK  8 active torsions:
REMARK  status: ('A' for Active; 'I' for Inactive)
REMARK    1  A    between atoms: C_8  and  S_27 
REMARK    2  A    between atoms: C_9  and  C_11 
REMARK    3  A    between atoms: C_11  and  N_12 
REMARK    4  A    between atoms: S_27  and  C_28 
REMARK    5  A    between atoms: N_12  and  C_14 
REMARK    6  A    between atoms: C_14  and  C_15 
REMARK    7  A    between atoms: C_18  and  N_21 
REMARK    8  A    between atoms: C_28  and  C_29 
ROOT
HETATM    1  C           1     173.782 191.215 269.542  0.00  0.00     0.001 A 
HETATM    2  C           1     173.994 191.162 270.915  0.00  0.00     0.002 A 
HETATM    3  C           1     174.424 189.971 271.507  0.00  0.00     0.032 A 
HETATM    4  C           1     174.649 188.821 270.760  0.00  0.00     0.068 A 
HETATM    5  C           1     174.430 188.881 269.367  0.00  0.00    -0.007 A 
HETATM    6  C           1     173.999 190.078 268.767  0.00  0.00     0.014 A 
HETATM    7  N           1     175.061 187.699 271.377  0.00  0.00    -0.241 NA
HETATM    8  C           1     175.269 186.600 270.619  0.00  0.00     0.102 A 
HETATM    9  C           1     175.084 186.560 269.249  0.00  0.00     0.006 A 
HETATM   10  C           1     174.657 187.721 268.616  0.00  0.00     0.025 A 
ENDROOT
BRANCH   9  11
HETATM   11  C           1     175.334 185.305 268.473  0.00  0.00     0.311 C 
BRANCH  11  12
HETATM   12  N           1     176.071 185.619 267.279  0.00  0.00     0.091 N 
HETATM   13  H           1     176.217 186.627 267.223  0.00  0.00     0.316 HD
BRANCH  12  14
HETATM   14  C           1     175.288 185.184 266.154  0.00  0.00     0.308 C 
BRANCH  14  15
HETATM   15  C           1     176.115 184.288 265.286  0.00  0.00    -0.030 A 
HETATM   16  C           1     176.786 183.200 265.845  0.00  0.00     0.011 A 
HETATM   17  C           1     177.557 182.365 265.035  0.00  0.00     0.030 A 
HETATM   18  C           1     177.655 182.617 263.668  0.00  0.00     0.030 A 
HETATM   19  C           1     176.984 183.704 263.108  0.00  0.00     0.030 A 
HETATM   20  C           1     176.215 184.540 263.918  0.00  0.00     0.011 A 
BRANCH  18  21
HETATM   21  N           1     178.354 181.860 262.934  0.00  0.00    -0.381 N 
HETATM   22  C           1     179.076 180.681 263.415  0.00  0.00     0.123 C 
HETATM   23  C           1     180.573 180.787 263.133  0.00  0.00     0.020 C 
HETATM   24  C           1     180.841 181.026 261.651  0.00  0.00     0.003 C 
HETATM   25  C           1     180.023 182.209 261.143  0.00  0.00     0.020 C 
HETATM   26  C           1     178.545 182.053 261.495  0.00  0.00     0.123 C 
ENDBRANCH  18  21
ENDBRANCH  14  15
ENDBRANCH  12  14
ENDBRANCH  11  12
ENDBRANCH   9  11
BRANCH   8  27
HETATM   27  S           1     175.826 185.085 271.449  0.00  0.00    -0.105 SA
BRANCH  27  28
HETATM   28  C           1     174.970 185.470 273.002  0.00  0.00     0.119 C 
BRANCH  28  29
HETATM   29  C           1     175.969 185.552 274.115  0.00  0.00    -0.049 A 
HETATM   30  C           1     175.696 184.946 275.342  0.00  0.00     0.008 A 
HETATM   31  C           1     176.626 185.023 276.378  0.00  0.00     0.001 A 
HETATM   32  C           1     177.828 185.704 276.189  0.00  0.00     0.000 A 
HETATM   33  C           1     178.100 186.310 274.962  0.00  0.00     0.001 A 
HETATM   34  C           1     177.170 186.233 273.925  0.00  0.00     0.008 A 
ENDBRANCH  28  29
ENDBRANCH  27  28
ENDBRANCH   8  27
TORSDOF 8
ENDMDL
